xflr5 v6.61

 Calculated polar for: SG6041

 1 1 Reynolds number fixed          Mach number fixed         

 xtrf =   1.000 (top)        1.000 (bottom)
 Mach =   0.000     Re =     0.125 e 6     Ncrit =   9.000

  alpha     CL        CD       CDp       Cm    Top Xtr Bot Xtr   Cpmin    Chinge    XCp    
 ------- -------- --------- --------- -------- ------- ------- -------- --------- ---------
 -10.000  -0.4087   0.10868   0.10399  -0.0323  1.0000  0.0664  -1.5517   0.0000   0.0000   0.0000   0.1628
  -9.900  -0.4087   0.10742   0.10275  -0.0327  1.0000  0.0672  -1.5539   0.0000   0.0000   0.0000   0.1621
  -9.800  -0.4089   0.10616   0.10150  -0.0330  1.0000  0.0680  -1.5581   0.0000   0.0000   0.0000   0.1613
  -9.700  -0.4093   0.10489   0.10026  -0.0335  1.0000  0.0688  -1.5645   0.0000   0.0000   0.0000   0.1605
  -9.600  -0.4101   0.10364   0.09902  -0.0340  1.0000  0.0697  -1.5738   0.0000   0.0000   0.0000   0.1596
  -9.500  -0.4113   0.10240   0.09781  -0.0346  1.0000  0.0706  -1.5873   0.0000   0.0000   0.0000   0.1585
  -9.400  -0.4132   0.10119   0.09663  -0.0353  1.0000  0.0715  -1.6065   0.0000   0.0000   0.0000   0.1573
  -9.300  -0.4161   0.10005   0.09552  -0.0362  1.0000  0.0724  -1.6340   0.0000   0.0000   0.0000   0.1557
  -9.200  -0.4202   0.09901   0.09451  -0.0375  1.0000  0.0732  -1.6717   0.0000   0.0000   0.0000   0.1539
  -9.100  -0.4252   0.09806   0.09361  -0.0389  1.0000  0.0739  -1.7149   0.0000   0.0000   0.0000   0.1518
  -9.000  -0.4308   0.09709   0.09267  -0.0402  1.0000  0.0744  -1.7577   0.0000   0.0000   0.0000   0.1501
  -8.900  -0.4369   0.09601   0.09163  -0.0415  1.0000  0.0747  -1.7985   0.0000   0.0000   0.0000   0.1488
  -8.800  -0.4435   0.09482   0.09048  -0.0426  1.0000  0.0748  -1.8383   0.0000   0.0000   0.0000   0.1479
  -8.700  -0.4497   0.09365   0.08934  -0.0435  1.0000  0.0750  -1.8716   0.0000   0.0000   0.0000   0.1475
  -8.600  -0.4570   0.09256   0.08828  -0.0439  1.0000  0.0751  -1.9035   0.0000   0.0000   0.0000   0.1482
  -8.500  -0.4650   0.09169   0.08743  -0.0438  1.0000  0.0751  -1.9315   0.0000   0.0000   0.0000   0.1504
  -8.400  -0.4732   0.09093   0.08668  -0.0431  1.0000  0.0752  -1.9568   0.0000   0.0000   0.0000   0.1536
  -8.300  -0.4803   0.09010   0.08586  -0.0426  1.0000  0.0753  -1.9805   0.0000   0.0000   0.0000   0.1562
  -8.200  -0.4866   0.08922   0.08498  -0.0421  1.0000  0.0753  -2.0027   0.0000   0.0000   0.0000   0.1585
  -8.100  -0.4928   0.08837   0.08413  -0.0415  1.0000  0.0754  -2.0231   0.0000   0.0000   0.0000   0.1608
  -8.000  -0.4987   0.08753   0.08328  -0.0409  1.0000  0.0755  -2.0418   0.0000   0.0000   0.0000   0.1633
  -7.900  -0.5043   0.08668   0.08242  -0.0402  1.0000  0.0755  -2.0587   0.0000   0.0000   0.0000   0.1657
  -7.800  -0.5096   0.08581   0.08153  -0.0395  1.0000  0.0756  -2.0739   0.0000   0.0000   0.0000   0.1680
  -7.700  -0.5144   0.08493   0.08063  -0.0387  1.0000  0.0757  -2.0875   0.0000   0.0000   0.0000   0.1703
  -7.600  -0.5188   0.08402   0.07969  -0.0379  1.0000  0.0757  -2.0995   0.0000   0.0000   0.0000   0.1725
  -7.500  -0.5228   0.08308   0.07873  -0.0372  1.0000  0.0757  -2.1099   0.0000   0.0000   0.0000   0.1746
  -7.400  -0.5364   0.07710   0.07284  -0.0375  1.0000  0.0770  -2.1922   0.0000   0.0000   0.0000   0.1758
  -7.300  -0.5330   0.07444   0.07026  -0.0369  1.0000  0.0779  -2.1466   0.0000   0.0000   0.0000   0.1767
  -7.200  -0.5304   0.07294   0.06882  -0.0359  1.0000  0.0786  -2.1012   0.0000   0.0000   0.0000   0.1782
  -7.100  -0.5294   0.07174   0.06764  -0.0349  1.0000  0.0792  -2.0665   0.0000   0.0000   0.0000   0.1800
  -7.000  -0.5292   0.07064   0.06657  -0.0340  1.0000  0.0798  -2.0383   0.0000   0.0000   0.0000   0.1819
  -6.900  -0.5289   0.06961   0.06556  -0.0330  1.0000  0.0805  -2.0153   0.0000   0.0000   0.0000   0.1837
  -6.800  -0.5291   0.06860   0.06455  -0.0321  1.0000  0.0811  -2.0017   0.0000   0.0000   0.0000   0.1855
  -6.700  -0.5297   0.06758   0.06353  -0.0313  1.0000  0.0818  -1.9914   0.0000   0.0000   0.0000   0.1872
  -6.600  -0.5304   0.06654   0.06249  -0.0305  1.0000  0.0825  -1.9837   0.0000   0.0000   0.0000   0.1888
  -6.500  -0.5311   0.06548   0.06142  -0.0298  1.0000  0.0833  -1.9780   0.0000   0.0000   0.0000   0.1902
  -6.400  -0.5317   0.06440   0.06032  -0.0292  1.0000  0.0841  -1.9741   0.0000   0.0000   0.0000   0.1916
  -6.300  -0.5322   0.06330   0.05920  -0.0286  1.0000  0.0851  -1.9716   0.0000   0.0000   0.0000   0.1928
  -6.200  -0.5325   0.06217   0.05804  -0.0281  1.0000  0.0861  -1.9706   0.0000   0.0000   0.0000   0.1939
  -6.100  -0.5325   0.06102   0.05686  -0.0276  1.0000  0.0873  -1.9711   0.0000   0.0000   0.0000   0.1949
  -6.000  -0.5321   0.05986   0.05565  -0.0271  1.0000  0.0886  -1.9732   0.0000   0.0000   0.0000   0.1957
  -5.900  -0.5314   0.05870   0.05443  -0.0268  1.0000  0.0902  -1.9775   0.0000   0.0000   0.0000   0.1964
  -5.800  -0.5301   0.05759   0.05324  -0.0265  1.0000  0.0922  -1.9861   0.0000   0.0000   0.0000   0.1969
  -5.700  -0.5261   0.06108   0.05618  -0.0258  1.0000  0.0983  -2.0291   0.0000   0.0000   0.0000   0.1977
  -5.600  -0.5308   0.05734   0.05235  -0.0259  1.0000  0.0994  -2.0749   0.0000   0.0000   0.0000   0.1980
  -5.500  -0.5310   0.05369   0.04878  -0.0259  1.0000  0.1008  -2.0729   0.0000   0.0000   0.0000   0.1980
  -5.400  -0.5273   0.05198   0.04713  -0.0254  1.0000  0.1018  -2.0480   0.0000   0.0000   0.0000   0.1986
  -5.300  -0.5234   0.05064   0.04583  -0.0249  1.0000  0.1029  -2.0234   0.0000   0.0000   0.0000   0.1994
  -5.200  -0.5194   0.04948   0.04468  -0.0243  1.0000  0.1040  -2.0009   0.0000   0.0000   0.0000   0.2001
  -5.100  -0.5151   0.04842   0.04361  -0.0237  1.0000  0.1053  -1.9801   0.0000   0.0000   0.0000   0.2009
  -5.000  -0.5106   0.04741   0.04258  -0.0232  1.0000  0.1068  -1.9619   0.0000   0.0000   0.0000   0.2016
  -4.900  -0.5059   0.04639   0.04148  -0.0227  1.0000  0.1084  -1.9476   0.0000   0.0000   0.0000   0.2021
  -4.800  -0.5009   0.04539   0.04041  -0.0223  1.0000  0.1103  -1.9369   0.0000   0.0000   0.0000   0.2026
  -4.700  -0.4814   0.03802   0.03188  -0.0214  1.0000  0.0520  -2.4580   0.0000   0.0000   0.0000   0.2022
  -4.600  -0.4761   0.03604   0.02976  -0.0210  1.0000  0.0498  -2.4818   0.0000   0.0000   0.0000   0.2025
  -4.500  -0.4695   0.03432   0.02786  -0.0205  1.0000  0.0476  -2.5140   0.0000   0.0000   0.0000   0.2029
  -4.400  -0.4619   0.03250   0.02578  -0.0199  1.0000  0.0451  -2.5712   0.0000   0.0000   0.0000   0.2035
  -4.300  -0.4528   0.03032   0.02313  -0.0190  1.0000  0.0420  -2.6911   0.0000   0.0000   0.0000   0.2044
  -4.200  -0.4438   0.02905   0.02155  -0.0183  1.0000  0.0405  -2.7448   0.0000   0.0000   0.0000   0.2052
  -4.100  -0.4351   0.02820   0.02050  -0.0177  1.0000  0.0399  -2.7587   0.0000   0.0000   0.0000   0.2058
  -4.000  -0.4267   0.02742   0.01956  -0.0171  1.0000  0.0396  -2.7601   0.0000   0.0000   0.0000   0.2064
  -3.900  -0.4182   0.02662   0.01862  -0.0165  1.0000  0.0396  -2.7581   0.0000   0.0000   0.0000   0.2069
  -3.800  -0.4098   0.02580   0.01768  -0.0160  1.0000  0.0398  -2.7546   0.0000   0.0000   0.0000   0.2073
  -3.700  -0.4013   0.02500   0.01677  -0.0155  1.0000  0.0401  -2.7484   0.0000   0.0000   0.0000   0.2078
  -3.600  -0.3929   0.02427   0.01596  -0.0150  1.0000  0.0407  -2.7366   0.0000   0.0000   0.0000   0.2082
  -3.500  -0.3845   0.02365   0.01528  -0.0146  1.0000  0.0416  -2.7185   0.0000   0.0000   0.0000   0.2086
  -3.400  -0.3761   0.02313   0.01472  -0.0141  1.0000  0.0427  -2.6963   0.0000   0.0000   0.0000   0.2091
  -3.300  -0.3680   0.02278   0.01434  -0.0136  1.0000  0.0445  -2.6615   0.0000   0.0000   0.0000   0.2095
  -3.200  -0.3600   0.02263   0.01418  -0.0132  1.0000  0.0475  -2.6120   0.0000   0.0000   0.0000   0.2099
  -3.100  -0.3519   0.02253   0.01404  -0.0128  1.0000  0.0509  -2.5691   0.0000   0.0000   0.0000   0.2104
  -3.000  -0.3436   0.02252   0.01395  -0.0122  1.0000  0.0537  -2.5338   0.0000   0.0000   0.0000   0.2110
  -2.900  -0.3348   0.02182   0.01317  -0.0117  1.0000  0.0560  -2.5350   0.0000   0.0000   0.0000   0.2117
  -2.800  -0.3243   0.02070   0.01206  -0.0115  0.9995  0.0596  -2.5414   0.0000   0.0000   0.0000   0.2111
  -2.700  -0.3097   0.02028   0.01167  -0.0122  0.9976  0.0650  -2.5047   0.0000   0.0000   0.0000   0.2071
  -2.600  -0.2943   0.02019   0.01153  -0.0131  0.9953  0.0734  -2.4543   0.0000   0.0000   0.0000   0.2022
  -2.500  -0.2810   0.01951   0.01093  -0.0136  0.9936  0.0840  -2.4204   0.0000   0.0000   0.0000   0.1983
  -2.400  -0.2659   0.01926   0.01067  -0.0143  0.9917  0.0960  -2.3748   0.0000   0.0000   0.0000   0.1928
  -2.300  -0.2524   0.01881   0.01028  -0.0149  0.9899  0.1123  -2.3182   0.0000   0.0000   0.0000   0.1874
  -2.200  -0.2403   0.01844   0.00999  -0.0152  0.9874  0.1301  -2.2539   0.0000   0.0000   0.0000   0.1831
  -2.100  -0.2279   0.01811   0.00977  -0.0156  0.9848  0.1537  -2.1808   0.0000   0.0000   0.0000   0.1777
  -2.000  -0.2157   0.01765   0.00956  -0.0161  0.9823  0.1972  -2.1107   0.0000   0.0000   0.0000   0.1719
  -1.900  -0.2109   0.01618   0.00950  -0.0155  0.9803  0.4566  -2.0651   0.0000   0.0000   0.0000   0.1729
  -1.800  -0.2092   0.01564   0.01007  -0.0126  0.9778  0.7287  -2.0140   0.0000   0.0000   0.0000   0.1865
  -1.700  -0.2002   0.01574   0.01035  -0.0112  0.9753  0.8040  -1.9328   0.0000   0.0000   0.0000   0.1905
  -1.600  -0.1876   0.01592   0.01058  -0.0107  0.9732  0.8503  -1.8361   0.0000   0.0000   0.0000   0.1893
  -1.500  -0.1697   0.01615   0.01083  -0.0114  0.9717  0.8867  -1.7184   0.0000   0.0000   0.0000   0.1794
  -1.400  -0.1497   0.01622   0.01088  -0.0126  0.9699  0.9218  -1.5930   0.0000   0.0000   0.0000   0.1621
  -1.300  -0.1053   0.01662   0.01117  -0.0185  0.9714  0.9566  -1.3730   0.0000   0.0000   0.0000   0.0692
  -1.200  -0.0687   0.01687   0.01127  -0.0233  0.9717  0.9749  -1.1866   0.0000   0.0000   0.0000  -0.0957
  -1.100  -0.0326   0.01710   0.01139  -0.0280  0.9721  0.9890  -1.0130   0.0000   0.0000   0.0000  -0.6217
  -1.000   0.0000   0.01731   0.01149  -0.0324  0.9723  1.0000  -0.8598   0.0000   0.0000   0.0000  4176.2785
  -0.900   0.0087   0.01723   0.01136  -0.0324  0.9679  1.0000  -0.8076   0.0000   0.0000   0.0000   4.0138
  -0.800   0.0174   0.01715   0.01123  -0.0324  0.9631  1.0000  -0.7559   0.0000   0.0000   0.0000   2.1288
  -0.700   0.0302   0.01715   0.01118  -0.0331  0.9591  1.0000  -0.6936   0.0000   0.0000   0.0000   1.3556
  -0.600   0.0458   0.01720   0.01117  -0.0344  0.9558  1.0000  -0.6245   0.0000   0.0000   0.0000   1.0038
  -0.500   0.0637   0.01728   0.01119  -0.0359  0.9530  1.0000  -0.5508   0.0000   0.0000   0.0000   0.8169
  -0.400   0.0834   0.01739   0.01125  -0.0379  0.9508  1.0000  -0.4735   0.0000   0.0000   0.0000   0.7053
  -0.200   0.0999   0.01733   0.01109  -0.0375  0.9414  1.0000  -0.4132   0.0000   0.0000   0.0000   0.6251
  -0.100   0.1117   0.01732   0.01104  -0.0379  0.9369  1.0000  -0.3863   0.0000   0.0000   0.0000   0.5887
   0.000   0.1276   0.01734   0.01102  -0.0390  0.9334  1.0000  -0.3905   0.0000   0.0000   0.0000   0.5549
   0.100   0.1460   0.01738   0.01102  -0.0405  0.9306  1.0000  -0.4059   0.0000   0.0000   0.0000   0.5267
   0.200   0.1668   0.01744   0.01104  -0.0425  0.9284  1.0000  -0.4229   0.0000   0.0000   0.0000   0.5036
   0.300   0.1893   0.01750   0.01107  -0.0447  0.9266  1.0000  -0.4412   0.0000   0.0000   0.0000   0.4851
   0.400   0.1893   0.01745   0.01100  -0.0429  0.9198  1.0000  -0.4458   0.0000   0.0000   0.0000   0.4752
   0.500   0.1985   0.01743   0.01094  -0.0427  0.9144  1.0000  -0.4568   0.0000   0.0000   0.0000   0.4635
   0.600   0.2148   0.01741   0.01091  -0.0437  0.9107  1.0000  -0.4728   0.0000   0.0000   0.0000   0.4519
   0.700   0.2341   0.01740   0.01087  -0.0453  0.9078  1.0000  -0.4910   0.0000   0.0000   0.0000   0.4417
   0.800   0.2559   0.01737   0.01082  -0.0473  0.9056  1.0000  -0.5131   0.0000   0.0000   0.0000   0.4330
   0.900   0.2789   0.01733   0.01076  -0.0495  0.9036  1.0000  -0.5364   0.0000   0.0000   0.0000   0.4256
   1.000   0.3037   0.01728   0.01070  -0.0520  0.9020  1.0000  -0.5625   0.0000   0.0000   0.0000   0.4193
   1.100   0.2928   0.01731   0.01071  -0.0480  0.8919  1.0000  -0.5602   0.0000   0.0000   0.0000   0.4120
   1.200   0.3091   0.01724   0.01063  -0.0490  0.8879  1.0000  -0.5811   0.0000   0.0000   0.0000   0.4063
   1.300   0.3298   0.01713   0.01052  -0.0507  0.8849  1.0000  -0.6061   0.0000   0.0000   0.0000   0.4014
   1.400   0.3530   0.01699   0.01038  -0.0527  0.8825  1.0000  -0.6334   0.0000   0.0000   0.0000   0.3972
   1.500   0.3785   0.01681   0.01021  -0.0553  0.8807  1.0000  -0.6630   0.0000   0.0000   0.0000   0.3937
   1.600   0.4063   0.01658   0.01001  -0.0582  0.8792  1.0000  -0.6949   0.0000   0.0000   0.0000   0.3908
   1.700   0.4346   0.01633   0.00979  -0.0611  0.8778  1.0000  -0.7294   0.0000   0.0000   0.0000   0.3883
   1.800   0.4181   0.01652   0.00995  -0.0560  0.8660  1.0000  -0.7218   0.0000   0.0000   0.0000   0.3815
   1.900   0.4393   0.01630   0.00974  -0.0577  0.8626  1.0000  -0.7524   0.0000   0.0000   0.0000   0.3787
   2.000   0.4624   0.01602   0.00948  -0.0596  0.8597  1.0000  -0.7853   0.0000   0.0000   0.0000   0.3762
   2.100   0.4869   0.01569   0.00917  -0.0617  0.8572  1.0000  -0.8231   0.0000   0.0000   0.0000   0.3740
   2.200   0.5119   0.01536   0.00887  -0.0639  0.8549  1.0000  -0.8645   0.0000   0.0000   0.0000   0.3720
   2.300   0.5115   0.01541   0.00891  -0.0616  0.8464  1.0000  -0.8755   0.0000   0.0000   0.0000   0.3675
   2.400   0.5227   0.01526   0.00876  -0.0613  0.8402  1.0000  -0.9006   0.0000   0.0000   0.0000   0.3643
   2.500   0.5415   0.01498   0.00851  -0.0623  0.8360  1.0000  -0.9353   0.0000   0.0000   0.0000   0.3621
   2.600   0.5622   0.01467   0.00821  -0.0636  0.8325  1.0000  -0.9727   0.0000   0.0000   0.0000   0.3601
   2.700   0.5826   0.01437   0.00793  -0.0649  0.8289  1.0000  -1.0100   0.0000   0.0000   0.0000   0.3583
   2.800   0.5794   0.01447   0.00803  -0.0621  0.8186  1.0000  -1.0178   0.0000   0.0000   0.0000   0.3540
   2.900   0.5937   0.01423   0.00781  -0.0623  0.8125  1.0000  -1.0481   0.0000   0.0000   0.0000   0.3516
   3.000   0.6127   0.01393   0.00755  -0.0632  0.8077  1.0000  -1.0893   0.0000   0.0000   0.0000   0.3499
   3.100   0.6194   0.01387   0.00750  -0.0621  0.7996  1.0000  -1.1139   0.0000   0.0000   0.0000   0.3469
   3.200   0.6278   0.01375   0.00739  -0.0613  0.7910  1.0000  -1.1411   0.0000   0.0000   0.0000   0.3441
   3.300   0.6440   0.01348   0.00712  -0.0617  0.7842  1.0000  -1.1805   0.0000   0.0000   0.0000   0.3422
   3.400   0.6513   0.01342   0.00706  -0.0607  0.7749  1.0000  -1.2064   0.0000   0.0000   0.0000   0.3395
   3.500   0.6610   0.01330   0.00695  -0.0601  0.7653  1.0000  -1.2361   0.0000   0.0000   0.0000   0.3371
   3.600   0.6766   0.01308   0.00670  -0.0604  0.7574  1.0000  -1.2753   0.0000   0.0000   0.0000   0.3355
   3.700   0.6813   0.01308   0.00673  -0.0590  0.7454  1.0000  -1.2976   0.0000   0.0000   0.0000   0.3327
   3.800   0.6952   0.01292   0.00653  -0.0591  0.7358  1.0000  -1.3346   0.0000   0.0000   0.0000   0.3310
   3.900   0.7021   0.01291   0.00654  -0.0580  0.7232  1.0000  -1.3604   0.0000   0.0000   0.0000   0.3286
   4.000   0.7151   0.01280   0.00638  -0.0580  0.7118  1.0000  -1.3963   0.0000   0.0000   0.0000   0.3269
   4.100   0.7224   0.01281   0.00638  -0.0570  0.6974  1.0000  -1.4232   0.0000   0.0000   0.0000   0.3247
   4.200   0.7334   0.01276   0.00629  -0.0566  0.6831  1.0000  -1.4561   0.0000   0.0000   0.0000   0.3229
   4.300   0.7423   0.01276   0.00624  -0.0559  0.6667  1.0000  -1.4860   0.0000   0.0000   0.0000   0.3209
   4.400   0.7507   0.01280   0.00629  -0.0551  0.6493  1.0000  -1.5151   0.0000   0.0000   0.0000   0.3189
   4.500   0.7595   0.01284   0.00626  -0.0544  0.6310  1.0000  -1.5451   0.0000   0.0000   0.0000   0.3170
   4.600   0.7682   0.01292   0.00625  -0.0536  0.6113  1.0000  -1.5778   0.0000   0.0000   0.0000   0.3151
   4.700   0.7762   0.01303   0.00625  -0.0528  0.5905  1.0000  -1.6123   0.0000   0.0000   0.0000   0.3132
   4.800   0.7834   0.01317   0.00630  -0.0519  0.5687  1.0000  -1.6483   0.0000   0.0000   0.0000   0.3113
   4.900   0.7904   0.01333   0.00636  -0.0509  0.5461  1.0000  -1.6864   0.0000   0.0000   0.0000   0.3094
   5.000   0.7970   0.01352   0.00643  -0.0499  0.5228  1.0000  -1.7240   0.0000   0.0000   0.0000   0.3075
   5.100   0.8033   0.01374   0.00652  -0.0489  0.4991  1.0000  -1.7610   0.0000   0.0000   0.0000   0.3057
   5.200   0.8093   0.01397   0.00663  -0.0478  0.4753  1.0000  -1.7975   0.0000   0.0000   0.0000   0.3038
   5.300   0.8151   0.01423   0.00676  -0.0468  0.4519  1.0000  -1.8337   0.0000   0.0000   0.0000   0.3020
   5.400   0.8209   0.01449   0.00690  -0.0458  0.4290  1.0000  -1.8698   0.0000   0.0000   0.0000   0.3002
   5.500   0.8267   0.01478   0.00706  -0.0448  0.4070  1.0000  -1.9059   0.0000   0.0000   0.0000   0.2985
   5.600   0.8325   0.01507   0.00724  -0.0438  0.3861  1.0000  -1.9421   0.0000   0.0000   0.0000   0.2969
   5.700   0.8383   0.01538   0.00743  -0.0428  0.3662  1.0000  -1.9787   0.0000   0.0000   0.0000   0.2952
   5.800   0.8439   0.01571   0.00763  -0.0418  0.3474  1.0000  -2.0202   0.0000   0.0000   0.0000   0.2937
   5.900   0.8496   0.01604   0.00784  -0.0409  0.3290  1.0000  -2.0621   0.0000   0.0000   0.0000   0.2921
   6.000   0.8559   0.01635   0.00811  -0.0401  0.3113  1.0000  -2.1053   0.0000   0.0000   0.0000   0.2907
   6.100   0.8619   0.01669   0.00835  -0.0392  0.2955  1.0000  -2.1481   0.0000   0.0000   0.0000   0.2893
   6.200   0.8677   0.01705   0.00859  -0.0384  0.2808  1.0000  -2.1907   0.0000   0.0000   0.0000   0.2879
   6.300   0.8746   0.01734   0.00885  -0.0376  0.2662  1.0000  -2.2355   0.0000   0.0000   0.0000   0.2866
   6.400   0.8804   0.01775   0.00910  -0.0368  0.2542  1.0000  -2.2784   0.0000   0.0000   0.0000   0.2853
   6.500   0.8878   0.01801   0.00938  -0.0362  0.2415  1.0000  -2.3247   0.0000   0.0000   0.0000   0.2841
   6.600   0.8938   0.01847   0.00966  -0.0354  0.2313  1.0000  -2.3681   0.0000   0.0000   0.0000   0.2829
   6.700   0.9017   0.01872   0.00997  -0.0349  0.2210  1.0000  -2.4153   0.0000   0.0000   0.0000   0.2818
   6.800   0.9085   0.01910   0.01026  -0.0342  0.2121  1.0000  -2.4608   0.0000   0.0000   0.0000   0.2807
   6.900   0.9161   0.01951   0.01063  -0.0336  0.2037  1.0000  -2.5067   0.0000   0.0000   0.0000   0.2796
   7.000   0.9238   0.01980   0.01094  -0.0331  0.1955  1.0000  -2.5538   0.0000   0.0000   0.0000   0.2786
   7.100   0.9310   0.02022   0.01127  -0.0325  0.1884  1.0000  -2.6005   0.0000   0.0000   0.0000   0.2776
   7.200   0.9393   0.02071   0.01172  -0.0321  0.1815  1.0000  -2.6474   0.0000   0.0000   0.0000   0.2768
   7.300   0.9473   0.02099   0.01206  -0.0316  0.1749  1.0000  -2.6948   0.0000   0.0000   0.0000   0.2758
   7.400   0.9549   0.02132   0.01237  -0.0310  0.1687  1.0000  -2.7428   0.0000   0.0000   0.0000   0.2749
   7.500   0.9635   0.02204   0.01293  -0.0308  0.1620  1.0000  -2.7922   0.0000   0.0000   0.0000   0.2743
   7.600   0.9714   0.02227   0.01326  -0.0302  0.1571  1.0000  -2.8441   0.0000   0.0000   0.0000   0.2733
   7.700   0.9791   0.02255   0.01363  -0.0297  0.1516  1.0000  -2.9003   0.0000   0.0000   0.0000   0.2724
   7.800   0.9867   0.02286   0.01394  -0.0292  0.1467  1.0000  -2.9577   0.0000   0.0000   0.0000   0.2715
   7.900   0.9949   0.02339   0.01439  -0.0289  0.1420  1.0000  -3.0164   0.0000   0.0000   0.0000   0.2708
   8.000   1.0052   0.02413   0.01511  -0.0288  0.1373  1.0000  -3.0757   0.0000   0.0000   0.0000   0.2704
   8.100   1.0130   0.02440   0.01549  -0.0283  0.1336  1.0000  -3.1307   0.0000   0.0000   0.0000   0.2695
   8.200   1.0207   0.02471   0.01585  -0.0277  0.1295  1.0000  -3.1871   0.0000   0.0000   0.0000   0.2686
   8.300   1.0282   0.02501   0.01617  -0.0272  0.1254  1.0000  -3.2451   0.0000   0.0000   0.0000   0.2678
   8.400   1.0355   0.02539   0.01651  -0.0267  0.1216  1.0000  -3.3044   0.0000   0.0000   0.0000   0.2670
   8.500   1.0469   0.02655   0.01757  -0.0271  0.1164  1.0000  -3.3670   0.0000   0.0000   0.0000   0.2670
   8.600   1.0540   0.02677   0.01792  -0.0264  0.1140  1.0000  -3.4203   0.0000   0.0000   0.0000   0.2661
   8.700   1.0619   0.02716   0.01841  -0.0259  0.1112  1.0000  -3.4733   0.0000   0.0000   0.0000   0.2653
   8.800   1.0698   0.02759   0.01891  -0.0254  0.1081  1.0000  -3.5270   0.0000   0.0000   0.0000   0.2645
   8.900   1.0777   0.02802   0.01939  -0.0249  0.1051  1.0000  -3.5819   0.0000   0.0000   0.0000   0.2638
   9.000   1.0853   0.02844   0.01982  -0.0245  0.1022  1.0000  -3.6458   0.0000   0.0000   0.0000   0.2630
   9.100   1.0931   0.02900   0.02035  -0.0241  0.0992  1.0000  -3.7142   0.0000   0.0000   0.0000   0.2624
   9.200   1.1045   0.03078   0.02211  -0.0247  0.0949  1.0000  -3.7757   0.0000   0.0000   0.0000   0.2626
   9.300   1.1102   0.03094   0.02241  -0.0237  0.0931  1.0000  -3.8333   0.0000   0.0000   0.0000   0.2615
   9.500   1.1223   0.03165   0.02337  -0.0222  0.0881  1.0000  -3.9485   0.0000   0.0000   0.0000   0.2597
   9.600   1.1286   0.03210   0.02389  -0.0215  0.0856  1.0000  -4.0072   0.0000   0.0000   0.0000   0.2588
   9.700   1.1353   0.03263   0.02448  -0.0209  0.0834  1.0000  -4.0663   0.0000   0.0000   0.0000   0.2581
   9.800   1.1420   0.03317   0.02505  -0.0204  0.0814  1.0000  -4.1271   0.0000   0.0000   0.0000   0.2573
   9.900   1.1490   0.03380   0.02569  -0.0199  0.0795  1.0000  -4.1896   0.0000   0.0000   0.0000   0.2567
  10.000   1.1566   0.03481   0.02672  -0.0197  0.0775  1.0000  -4.2486   0.0000   0.0000   0.0000   0.2563
  10.100   1.1634   0.03726   0.02930  -0.0197  0.0752  1.0000  -4.2973   0.0000   0.0000   0.0000   0.2560
  10.200   1.1672   0.03850   0.03070  -0.0188  0.0742  1.0000  -4.3482   0.0000   0.0000   0.0000   0.2552
  10.300   1.1714   0.03911   0.03145  -0.0178  0.0735  1.0000  -4.4120   0.0000   0.0000   0.0000   0.2541
  10.400   1.1753   0.03987   0.03235  -0.0168  0.0727  1.0000  -4.4712   0.0000   0.0000   0.0000   0.2531
  10.500   1.1786   0.04068   0.03331  -0.0158  0.0717  1.0000  -4.5270   0.0000   0.0000   0.0000   0.2521
  10.600   1.1814   0.04152   0.03429  -0.0148  0.0707  1.0000  -4.5804   0.0000   0.0000   0.0000   0.2511
  10.700   1.1838   0.04236   0.03526  -0.0137  0.0696  1.0000  -4.6323   0.0000   0.0000   0.0000   0.2500
  10.800   1.1858   0.04318   0.03621  -0.0126  0.0685  1.0000  -4.6841   0.0000   0.0000   0.0000   0.2490
  10.900   1.1875   0.04397   0.03710  -0.0116  0.0673  1.0000  -4.7372   0.0000   0.0000   0.0000   0.2479
  11.000   1.1892   0.04470   0.03793  -0.0105  0.0661  1.0000  -4.7929   0.0000   0.0000   0.0000   0.2469
  11.100   1.1911   0.04539   0.03869  -0.0095  0.0650  1.0000  -4.8525   0.0000   0.0000   0.0000   0.2459
  11.200   1.1922   0.04609   0.03947  -0.0084  0.0639  1.0000  -4.9101   0.0000   0.0000   0.0000   0.2448
  11.300   1.1927   0.04681   0.04026  -0.0072  0.0630  1.0000  -4.9716   0.0000   0.0000   0.0000   0.2437
  11.400   1.1923   0.04762   0.04115  -0.0060  0.0623  1.0000  -5.0251   0.0000   0.0000   0.0000   0.2426
  11.500   1.1912   0.04853   0.04214  -0.0047  0.0617  1.0000  -5.0709   0.0000   0.0000   0.0000   0.2413
  11.600   1.1897   0.04946   0.04315  -0.0034  0.0612  1.0000  -5.1145   0.0000   0.0000   0.0000   0.2401
  11.700   1.1878   0.05043   0.04419  -0.0021  0.0608  1.0000  -5.1552   0.0000   0.0000   0.0000   0.2390
  11.800   1.1856   0.05144   0.04528  -0.0009  0.0603  1.0000  -5.1926   0.0000   0.0000   0.0000   0.2378
  11.900   1.1829   0.05252   0.04643   0.0003  0.0599  1.0000  -5.2254   0.0000   0.0000   0.0000   0.2367
  12.000   1.1795   0.05366   0.04765   0.0015  0.0596  1.0000  -5.2525   0.0000   0.0000   0.0000   0.2355
  12.100   1.1754   0.05487   0.04895   0.0026  0.0593  1.0000  -5.2728   0.0000   0.0000   0.0000   0.2344
  12.200   1.1704   0.05615   0.05031   0.0037  0.0590  1.0000  -5.2859   0.0000   0.0000   0.0000   0.2333
  12.300   1.1647   0.05750   0.05175   0.0048  0.0588  1.0000  -5.2916   0.0000   0.0000   0.0000   0.2323
  12.400   1.1582   0.05891   0.05325   0.0058  0.0586  1.0000  -5.2903   0.0000   0.0000   0.0000   0.2312
  12.500   1.1510   0.06038   0.05482   0.0067  0.0585  1.0000  -5.2824   0.0000   0.0000   0.0000   0.2303
  12.600   1.1431   0.06192   0.05644   0.0075  0.0584  1.0000  -5.2681   0.0000   0.0000   0.0000   0.2294
  12.700   1.1345   0.06351   0.05813   0.0082  0.0584  1.0000  -5.2475   0.0000   0.0000   0.0000   0.2286
  12.800   1.1253   0.06519   0.05991   0.0088  0.0584  1.0000  -5.2205   0.0000   0.0000   0.0000   0.2279
  12.900   1.1153   0.06697   0.06178   0.0091  0.0585  1.0000  -5.1854   0.0000   0.0000   0.0000   0.2273
  13.000   1.1043   0.06888   0.06379   0.0093  0.0586  1.0000  -5.1398   0.0000   0.0000   0.0000   0.2269
  13.100   1.0917   0.07102   0.06603   0.0092  0.0588  1.0000  -5.0779   0.0000   0.0000   0.0000   0.2267
  13.200   1.0764   0.07357   0.06870   0.0088  0.0592  1.0000  -4.9865   0.0000   0.0000   0.0000   0.2269
  13.300   1.0553   0.07704   0.07230   0.0076  0.0598  1.0000  -4.8333   0.0000   0.0000   0.0000   0.2277
  13.500   0.8978   0.10997   0.10552  -0.0141  0.0714  1.0000  -3.3068   0.0000   0.0000   0.0000   0.2509
  13.600   0.8830   0.11607   0.11159  -0.0173  0.0724  1.0000  -3.1445   0.0000   0.0000   0.0000   0.2549
  13.700   0.8733   0.12080   0.11626  -0.0197  0.0730  1.0000  -3.0372   0.0000   0.0000   0.0000   0.2578
  13.800   0.8660   0.12491   0.12036  -0.0216  0.0734  1.0000  -2.9577   0.0000   0.0000   0.0000   0.2602
  13.900   0.8603   0.12866   0.12409  -0.0232  0.0738  1.0000  -2.8942   0.0000   0.0000   0.0000   0.2622
  14.000   0.8559   0.13215   0.12757  -0.0246  0.0741  1.0000  -2.8432   0.0000   0.0000   0.0000   0.2640
  14.100   0.8527   0.13541   0.13083  -0.0258  0.0743  1.0000  -2.8053   0.0000   0.0000   0.0000   0.2654
  14.300   0.8507   0.14126   0.13671  -0.0293  0.0767  1.0000  -2.7076   0.0000   0.0000   0.0000   0.2695
  14.400   0.5439   0.11073   0.10713  -0.0396  0.1200  1.0000  -1.1274   0.0000   0.0000   0.0000   0.3151
  14.500   0.5575   0.11268   0.10912  -0.0388  0.1187  1.0000  -1.1947   0.0000   0.0000   0.0000   0.3115
  14.600   0.5795   0.11876   0.11524  -0.0369  0.1167  1.0000  -1.2964   0.0000   0.0000   0.0000   0.3053
  14.700   0.5795   0.12036   0.11685  -0.0380  0.1166  1.0000  -1.2799   0.0000   0.0000   0.0000   0.3072
  14.800   0.5781   0.12184   0.11832  -0.0394  0.1164  1.0000  -1.2553   0.0000   0.0000   0.0000   0.3096
  14.900   0.5756   0.12314   0.11962  -0.0408  0.1162  1.0000  -1.2255   0.0000   0.0000   0.0000   0.3124
  15.000   0.5722   0.12417   0.12065  -0.0424  0.1159  1.0000  -1.1903   0.0000   0.0000   0.0000   0.3156


