xflr5 v6.61

 Calculated polar for: SG6041

 1 1 Reynolds number fixed          Mach number fixed         

 xtrf =   1.000 (top)        1.000 (bottom)
 Mach =   0.000     Re =     0.150 e 6     Ncrit =   9.000

  alpha     CL        CD       CDp       Cm    Top Xtr Bot Xtr   Cpmin    Chinge    XCp    
 ------- -------- --------- --------- -------- ------- ------- -------- --------- ---------
 -10.000  -0.4266   0.11054   0.10631  -0.0401  1.0000  0.0547  -1.8677   0.0000   0.0000   0.0000   0.1483
  -9.900  -0.4273   0.10917   0.10495  -0.0407  1.0000  0.0547  -1.8813   0.0000   0.0000   0.0000   0.1471
  -9.800  -0.4282   0.10777   0.10357  -0.0414  1.0000  0.0548  -1.8956   0.0000   0.0000   0.0000   0.1460
  -9.700  -0.4293   0.10635   0.10217  -0.0420  1.0000  0.0548  -1.9110   0.0000   0.0000   0.0000   0.1448
  -9.500  -0.4389   0.10058   0.09650  -0.0435  1.0000  0.0554  -2.0047   0.0000   0.0000   0.0000   0.1439
  -9.400  -0.4404   0.09729   0.09321  -0.0424  1.0000  0.0564  -1.9952   0.0000   0.0000   0.0000   0.1466
  -9.300  -0.4361   0.09580   0.09173  -0.0411  1.0000  0.0570  -1.9372   0.0000   0.0000   0.0000   0.1488
  -9.200  -0.4336   0.09454   0.09048  -0.0403  1.0000  0.0575  -1.8979   0.0000   0.0000   0.0000   0.1501
  -9.100  -0.4313   0.09338   0.08933  -0.0397  1.0000  0.0580  -1.8624   0.0000   0.0000   0.0000   0.1512
  -9.000  -0.4296   0.09226   0.08822  -0.0391  1.0000  0.0585  -1.8329   0.0000   0.0000   0.0000   0.1521
  -8.900  -0.4287   0.09113   0.08711  -0.0388  1.0000  0.0590  -1.8111   0.0000   0.0000   0.0000   0.1529
  -8.800  -0.4285   0.09000   0.08600  -0.0385  1.0000  0.0595  -1.7947   0.0000   0.0000   0.0000   0.1536
  -8.700  -0.4286   0.08887   0.08489  -0.0383  1.0000  0.0599  -1.7813   0.0000   0.0000   0.0000   0.1542
  -8.600  -0.4293   0.08773   0.08377  -0.0381  1.0000  0.0604  -1.7721   0.0000   0.0000   0.0000   0.1549
  -8.500  -0.4306   0.08659   0.08265  -0.0380  1.0000  0.0609  -1.7669   0.0000   0.0000   0.0000   0.1556
  -8.400  -0.4325   0.08544   0.08153  -0.0378  1.0000  0.0613  -1.7653   0.0000   0.0000   0.0000   0.1564
  -8.300  -0.4351   0.08429   0.08041  -0.0377  1.0000  0.0617  -1.7672   0.0000   0.0000   0.0000   0.1574
  -8.200  -0.4385   0.08315   0.07929  -0.0376  1.0000  0.0621  -1.7727   0.0000   0.0000   0.0000   0.1585
  -8.100  -0.4428   0.08202   0.07819  -0.0374  1.0000  0.0624  -1.7820   0.0000   0.0000   0.0000   0.1598
  -8.000  -0.4482   0.08091   0.07712  -0.0372  1.0000  0.0627  -1.7957   0.0000   0.0000   0.0000   0.1615
  -7.900  -0.4551   0.07983   0.07608  -0.0369  1.0000  0.0629  -1.8149   0.0000   0.0000   0.0000   0.1635
  -7.800  -0.4641   0.07881   0.07509  -0.0365  1.0000  0.0629  -1.8412   0.0000   0.0000   0.0000   0.1662
  -7.700  -0.4750   0.07785   0.07417  -0.0360  1.0000  0.0629  -1.8733   0.0000   0.0000   0.0000   0.1694
  -7.600  -0.4842   0.07689   0.07322  -0.0353  1.0000  0.0629  -1.8985   0.0000   0.0000   0.0000   0.1725
  -7.500  -0.4908   0.07580   0.07215  -0.0347  1.0000  0.0631  -1.9153   0.0000   0.0000   0.0000   0.1747
  -7.400  -0.4971   0.07471   0.07107  -0.0341  1.0000  0.0634  -1.9305   0.0000   0.0000   0.0000   0.1769
  -7.300  -0.5029   0.07362   0.06998  -0.0335  1.0000  0.0637  -1.9442   0.0000   0.0000   0.0000   0.1791
  -7.200  -0.5084   0.07252   0.06888  -0.0329  1.0000  0.0640  -1.9566   0.0000   0.0000   0.0000   0.1811
  -7.100  -0.5134   0.07140   0.06776  -0.0323  1.0000  0.0644  -1.9677   0.0000   0.0000   0.0000   0.1829
  -7.000  -0.5180   0.07027   0.06663  -0.0318  1.0000  0.0648  -1.9777   0.0000   0.0000   0.0000   0.1846
  -6.900  -0.5221   0.06912   0.06546  -0.0312  1.0000  0.0653  -1.9865   0.0000   0.0000   0.0000   0.1862
  -6.800  -0.5257   0.06795   0.06427  -0.0307  1.0000  0.0658  -1.9943   0.0000   0.0000   0.0000   0.1877
  -6.700  -0.5288   0.06676   0.06306  -0.0302  1.0000  0.0665  -2.0017   0.0000   0.0000   0.0000   0.1890
  -6.600  -0.5314   0.06555   0.06182  -0.0298  1.0000  0.0672  -2.0134   0.0000   0.0000   0.0000   0.1903
  -6.500  -0.5335   0.06433   0.06056  -0.0293  1.0000  0.0679  -2.0255   0.0000   0.0000   0.0000   0.1913
  -6.400  -0.5350   0.06310   0.05929  -0.0290  1.0000  0.0689  -2.0381   0.0000   0.0000   0.0000   0.1923
  -6.300  -0.5358   0.06191   0.05804  -0.0286  1.0000  0.0700  -2.0525   0.0000   0.0000   0.0000   0.1931
  -6.200  -0.5359   0.06086   0.05689  -0.0283  1.0000  0.0716  -2.0733   0.0000   0.0000   0.0000   0.1937
  -6.100  -0.5325   0.06276   0.05847  -0.0277  1.0000  0.0751  -2.1100   0.0000   0.0000   0.0000   0.1945
  -6.000  -0.5308   0.06249   0.05807  -0.0269  1.0000  0.0754  -2.1125   0.0000   0.0000   0.0000   0.1958
  -5.900  -0.5290   0.06176   0.05724  -0.0262  1.0000  0.0756  -2.1146   0.0000   0.0000   0.0000   0.1970
  -5.800  -0.5270   0.06086   0.05625  -0.0256  1.0000  0.0757  -2.1159   0.0000   0.0000   0.0000   0.1981
  -5.700  -0.5382   0.05427   0.04961  -0.0262  1.0000  0.0774  -2.2063   0.0000   0.0000   0.0000   0.1979
  -5.600  -0.5363   0.05205   0.04742  -0.0259  1.0000  0.0784  -2.1927   0.0000   0.0000   0.0000   0.1983
  -5.500  -0.5326   0.05059   0.04600  -0.0254  1.0000  0.0791  -2.1665   0.0000   0.0000   0.0000   0.1989
  -5.400  -0.5288   0.04936   0.04478  -0.0249  1.0000  0.0799  -2.1408   0.0000   0.0000   0.0000   0.1996
  -5.300  -0.5248   0.04824   0.04365  -0.0244  1.0000  0.0807  -2.1165   0.0000   0.0000   0.0000   0.2003
  -5.200  -0.5207   0.04719   0.04258  -0.0239  1.0000  0.0816  -2.0940   0.0000   0.0000   0.0000   0.2010
  -4.600  -0.4790   0.03273   0.02631  -0.0197  1.0000  0.0399  -2.7156   0.0000   0.0000   0.0000   0.2054
  -4.500  -0.4695   0.03308   0.02655  -0.0188  1.0000  0.0384  -2.6960   0.0000   0.0000   0.0000   0.2065
  -4.300  -0.4545   0.03059   0.02388  -0.0178  1.0000  0.0363  -2.6987   0.0000   0.0000   0.0000   0.2072
  -4.200  -0.4471   0.02917   0.02225  -0.0173  1.0000  0.0356  -2.7156   0.0000   0.0000   0.0000   0.2077
  -4.100  -0.4347   0.02781   0.02069  -0.0177  0.9989  0.0351  -2.7263   0.0000   0.0000   0.0000   0.2058
  -4.000  -0.4215   0.02663   0.01931  -0.0180  0.9976  0.0347  -2.7321   0.0000   0.0000   0.0000   0.2036
  -3.900  -0.4080   0.02560   0.01810  -0.0184  0.9962  0.0345  -2.7336   0.0000   0.0000   0.0000   0.2012
  -3.800  -0.3941   0.02470   0.01703  -0.0188  0.9947  0.0346  -2.7306   0.0000   0.0000   0.0000   0.1985
  -3.700  -0.3798   0.02391   0.01609  -0.0193  0.9932  0.0349  -2.7233   0.0000   0.0000   0.0000   0.1954
  -3.600  -0.3651   0.02324   0.01529  -0.0199  0.9918  0.0355  -2.7116   0.0000   0.0000   0.0000   0.1918
  -3.500  -0.3499   0.02272   0.01465  -0.0205  0.9905  0.0364  -2.6939   0.0000   0.0000   0.0000   0.1876
  -3.400  -0.3372   0.02233   0.01416  -0.0207  0.9886  0.0373  -2.6697   0.0000   0.0000   0.0000   0.1849
  -3.300  -0.3253   0.02122   0.01296  -0.0207  0.9871  0.0388  -2.6890   0.0000   0.0000   0.0000   0.1826
  -3.200  -0.3138   0.02048   0.01225  -0.0210  0.9854  0.0428  -2.6482   0.0000   0.0000   0.0000   0.1793
  -3.100  -0.3004   0.02047   0.01228  -0.0217  0.9830  0.0480  -2.5663   0.0000   0.0000   0.0000   0.1740
  -3.000  -0.2863   0.02035   0.01211  -0.0222  0.9809  0.0528  -2.5195   0.0000   0.0000   0.0000   0.1685
  -2.900  -0.2732   0.01961   0.01133  -0.0224  0.9792  0.0570  -2.5206   0.0000   0.0000   0.0000   0.1640
  -2.800  -0.2600   0.01902   0.01081  -0.0229  0.9774  0.0649  -2.4845   0.0000   0.0000   0.0000   0.1579
  -2.700  -0.2440   0.01909   0.01083  -0.0239  0.9755  0.0755  -2.4112   0.0000   0.0000   0.0000   0.1480
  -2.500  -0.2157   0.01803   0.00988  -0.0252  0.9726  0.1057  -2.3101   0.0000   0.0000   0.0000   0.1287
  -2.400  -0.2014   0.01788   0.00975  -0.0260  0.9709  0.1236  -2.2250   0.0000   0.0000   0.0000   0.1166
  -2.300  -0.1939   0.01748   0.00946  -0.0255  0.9677  0.1424  -2.1625   0.0000   0.0000   0.0000   0.1143
  -2.200  -0.1843   0.01703   0.00922  -0.0254  0.9649  0.1763  -2.0948   0.0000   0.0000   0.0000   0.1080
  -2.100  -0.1769   0.01608   0.00904  -0.0252  0.9623  0.3182  -2.0354   0.0000   0.0000   0.0000   0.1031
  -2.000  -0.1768   0.01494   0.00931  -0.0230  0.9596  0.6200  -1.9914   0.0000   0.0000   0.0000   0.1155
  -1.900  -0.1696   0.01484   0.00957  -0.0215  0.9569  0.7353  -1.9165   0.0000   0.0000   0.0000   0.1191
  -1.800  -0.1591   0.01489   0.00972  -0.0207  0.9546  0.7862  -1.8280   0.0000   0.0000   0.0000   0.1156
  -1.700  -0.1466   0.01497   0.00985  -0.0204  0.9525  0.8204  -1.7313   0.0000   0.0000   0.0000   0.1064
  -1.600  -0.1323   0.01509   0.00997  -0.0206  0.9508  0.8467  -1.6278   0.0000   0.0000   0.0000   0.0899
  -1.500  -0.1161   0.01524   0.01011  -0.0211  0.9494  0.8702  -1.5179   0.0000   0.0000   0.0000   0.0636
  -1.400  -0.1074   0.01521   0.01009  -0.0202  0.9462  0.8900  -1.4390   0.0000   0.0000   0.0000   0.0565
  -1.300  -0.0937   0.01524   0.01011  -0.0204  0.9435  0.9113  -1.3413   0.0000   0.0000   0.0000   0.0272
  -1.200  -0.0721   0.01534   0.01015  -0.0221  0.9419  0.9312  -1.2118   0.0000   0.0000   0.0000  -0.0630
  -1.100  -0.0481   0.01546   0.01022  -0.0244  0.9405  0.9477  -1.0805   0.0000   0.0000   0.0000  -0.2659
  -1.000  -0.0151   0.01564   0.01032  -0.0285  0.9406  0.9595  -0.9202   0.0000   0.0000   0.0000  -1.6584
  -0.900   0.0127   0.01580   0.01041  -0.0316  0.9399  0.9714  -0.7940   0.0000   0.0000   0.0000   2.7570
  -0.800   0.0912   0.01638   0.01084  -0.0439  0.9490  0.9888  -0.5517   0.0000   0.0000   0.0000   0.7336
  -0.700   0.1311   0.01639   0.01076  -0.0495  0.9501  0.9986  -0.4344   0.0000   0.0000   0.0000   0.6291
  -0.600   0.1549   0.01641   0.01074  -0.0522  0.9491  1.0000  -0.3884   0.0000   0.0000   0.0000   0.5878
  -0.500   0.1496   0.01624   0.01055  -0.0496  0.9414  1.0000  -0.3884   0.0000   0.0000   0.0000   0.5821
  -0.400   0.1609   0.01616   0.01045  -0.0500  0.9372  1.0000  -0.3977   0.0000   0.0000   0.0000   0.5607
  -0.300   0.1763   0.01611   0.01036  -0.0510  0.9341  1.0000  -0.4103   0.0000   0.0000   0.0000   0.5393
  -0.200   0.1940   0.01606   0.01028  -0.0525  0.9317  1.0000  -0.4255   0.0000   0.0000   0.0000   0.5202
  -0.100   0.2135   0.01601   0.01020  -0.0542  0.9296  1.0000  -0.4418   0.0000   0.0000   0.0000   0.5035
   0.000   0.2343   0.01596   0.01011  -0.0562  0.9278  1.0000  -0.4591   0.0000   0.0000   0.0000   0.4892
   0.100   0.2562   0.01590   0.01003  -0.0584  0.9264  1.0000  -0.4788   0.0000   0.0000   0.0000   0.4769
   0.300   0.2603   0.01575   0.00986  -0.0555  0.9136  1.0000  -0.4915   0.0000   0.0000   0.0000   0.4620
   0.400   0.2772   0.01566   0.00974  -0.0566  0.9107  1.0000  -0.5081   0.0000   0.0000   0.0000   0.4531
   0.500   0.2965   0.01556   0.00962  -0.0582  0.9082  1.0000  -0.5286   0.0000   0.0000   0.0000   0.4450
   0.600   0.3182   0.01544   0.00949  -0.0602  0.9064  1.0000  -0.5510   0.0000   0.0000   0.0000   0.4378
   0.700   0.3418   0.01530   0.00934  -0.0625  0.9049  1.0000  -0.5764   0.0000   0.0000   0.0000   0.4315
   0.800   0.3671   0.01513   0.00917  -0.0652  0.9037  1.0000  -0.6052   0.0000   0.0000   0.0000   0.4259
   0.900   0.3936   0.01495   0.00898  -0.0680  0.9026  1.0000  -0.6352   0.0000   0.0000   0.0000   0.4210
   1.100   0.3958   0.01484   0.00887  -0.0644  0.8887  1.0000  -0.6519   0.0000   0.0000   0.0000   0.4108
   1.200   0.4163   0.01465   0.00868  -0.0660  0.8861  1.0000  -0.6772   0.0000   0.0000   0.0000   0.4066
   1.300   0.4375   0.01443   0.00846  -0.0678  0.8837  1.0000  -0.7034   0.0000   0.0000   0.0000   0.4028
   1.400   0.4601   0.01418   0.00823  -0.0697  0.8816  1.0000  -0.7315   0.0000   0.0000   0.0000   0.3994
   1.500   0.4831   0.01391   0.00796  -0.0717  0.8795  1.0000  -0.7639   0.0000   0.0000   0.0000   0.3962
   1.700   0.4921   0.01376   0.00782  -0.0690  0.8664  1.0000  -0.7918   0.0000   0.0000   0.0000   0.3880
   1.800   0.5072   0.01355   0.00761  -0.0696  0.8620  1.0000  -0.8178   0.0000   0.0000   0.0000   0.3847
   1.900   0.5252   0.01329   0.00736  -0.0706  0.8585  1.0000  -0.8506   0.0000   0.0000   0.0000   0.3819
   2.000   0.5448   0.01302   0.00709  -0.0718  0.8554  1.0000  -0.8858   0.0000   0.0000   0.0000   0.3793
   2.100   0.5503   0.01296   0.00703  -0.0707  0.8491  1.0000  -0.9041   0.0000   0.0000   0.0000   0.3758
   2.200   0.5534   0.01291   0.00698  -0.0690  0.8416  1.0000  -0.9196   0.0000   0.0000   0.0000   0.3720
   2.300   0.5661   0.01273   0.00681  -0.0690  0.8364  1.0000  -0.9468   0.0000   0.0000   0.0000   0.3691
   2.400   0.5827   0.01249   0.00657  -0.0697  0.8321  1.0000  -0.9792   0.0000   0.0000   0.0000   0.3667
   2.500   0.5912   0.01239   0.00647  -0.0690  0.8259  1.0000  -1.0016   0.0000   0.0000   0.0000   0.3637
   2.600   0.5941   0.01236   0.00644  -0.0673  0.8175  1.0000  -1.0173   0.0000   0.0000   0.0000   0.3602
   2.700   0.6060   0.01220   0.00628  -0.0671  0.8113  1.0000  -1.0443   0.0000   0.0000   0.0000   0.3576
   2.800   0.6215   0.01199   0.00609  -0.0675  0.8061  1.0000  -1.0795   0.0000   0.0000   0.0000   0.3555
   2.900   0.6232   0.01201   0.00612  -0.0656  0.7966  1.0000  -1.0966   0.0000   0.0000   0.0000   0.3520
   3.000   0.6325   0.01189   0.00600  -0.0650  0.7884  1.0000  -1.1251   0.0000   0.0000   0.0000   0.3494
   3.100   0.6470   0.01171   0.00579  -0.0652  0.7819  1.0000  -1.1617   0.0000   0.0000   0.0000   0.3474
   3.200   0.6501   0.01173   0.00583  -0.0636  0.7714  1.0000  -1.1810   0.0000   0.0000   0.0000   0.3443
   3.300   0.6604   0.01163   0.00570  -0.0631  0.7625  1.0000  -1.2116   0.0000   0.0000   0.0000   0.3420
   3.400   0.6699   0.01157   0.00563  -0.0626  0.7531  1.0000  -1.2410   0.0000   0.0000   0.0000   0.3397
   3.500   0.6777   0.01153   0.00558  -0.0617  0.7423  1.0000  -1.2680   0.0000   0.0000   0.0000   0.3373
   3.600   0.6895   0.01145   0.00547  -0.0615  0.7328  1.0000  -1.3012   0.0000   0.0000   0.0000   0.3354
   3.700   0.6963   0.01146   0.00547  -0.0605  0.7206  1.0000  -1.3269   0.0000   0.0000   0.0000   0.3330
   3.800   0.7073   0.01142   0.00537  -0.0602  0.7091  1.0000  -1.3594   0.0000   0.0000   0.0000   0.3311
   3.900   0.7146   0.01144   0.00538  -0.0593  0.6949  1.0000  -1.3861   0.0000   0.0000   0.0000   0.3289
   4.000   0.7237   0.01144   0.00533  -0.0587  0.6807  1.0000  -1.4160   0.0000   0.0000   0.0000   0.3269
   4.100   0.7327   0.01147   0.00529  -0.0580  0.6648  1.0000  -1.4457   0.0000   0.0000   0.0000   0.3249
   4.200   0.7404   0.01153   0.00530  -0.0571  0.6477  1.0000  -1.4736   0.0000   0.0000   0.0000   0.3228
   4.300   0.7486   0.01160   0.00530  -0.0564  0.6299  1.0000  -1.5023   0.0000   0.0000   0.0000   0.3208
   4.400   0.7566   0.01170   0.00535  -0.0556  0.6110  1.0000  -1.5309   0.0000   0.0000   0.0000   0.3189
   4.600   0.7711   0.01196   0.00543  -0.0538  0.5701  1.0000  -1.5895   0.0000   0.0000   0.0000   0.3150
   4.700   0.7779   0.01212   0.00549  -0.0528  0.5484  1.0000  -1.6215   0.0000   0.0000   0.0000   0.3130
   4.800   0.7844   0.01230   0.00556  -0.0518  0.5261  1.0000  -1.6577   0.0000   0.0000   0.0000   0.3111
   4.900   0.7907   0.01250   0.00565  -0.0508  0.5036  1.0000  -1.6945   0.0000   0.0000   0.0000   0.3092
   5.000   0.7969   0.01271   0.00575  -0.0498  0.4811  1.0000  -1.7310   0.0000   0.0000   0.0000   0.3074
   5.100   0.8029   0.01294   0.00586  -0.0488  0.4590  1.0000  -1.7674   0.0000   0.0000   0.0000   0.3055
   5.200   0.8089   0.01318   0.00599  -0.0478  0.4376  1.0000  -1.8039   0.0000   0.0000   0.0000   0.3038
   5.300   0.8147   0.01344   0.00613  -0.0468  0.4167  1.0000  -1.8402   0.0000   0.0000   0.0000   0.3020
   5.400   0.8205   0.01371   0.00628  -0.0458  0.3961  1.0000  -1.8763   0.0000   0.0000   0.0000   0.3003
   5.500   0.8262   0.01399   0.00644  -0.0448  0.3757  1.0000  -1.9124   0.0000   0.0000   0.0000   0.2986
   5.600   0.8322   0.01426   0.00661  -0.0439  0.3555  1.0000  -1.9493   0.0000   0.0000   0.0000   0.2971
   5.700   0.8383   0.01454   0.00680  -0.0431  0.3364  1.0000  -1.9893   0.0000   0.0000   0.0000   0.2955
   5.800   0.8443   0.01483   0.00699  -0.0422  0.3186  1.0000  -2.0321   0.0000   0.0000   0.0000   0.2940
   5.900   0.8498   0.01516   0.00718  -0.0412  0.3020  1.0000  -2.0740   0.0000   0.0000   0.0000   0.2925
   6.000   0.8565   0.01543   0.00743  -0.0405  0.2855  1.0000  -2.1189   0.0000   0.0000   0.0000   0.2911
   6.100   0.8629   0.01572   0.00765  -0.0397  0.2708  1.0000  -2.1633   0.0000   0.0000   0.0000   0.2898
   6.200   0.8689   0.01605   0.00787  -0.0389  0.2574  1.0000  -2.2068   0.0000   0.0000   0.0000   0.2884
   6.300   0.8762   0.01632   0.00811  -0.0382  0.2446  1.0000  -2.2532   0.0000   0.0000   0.0000   0.2872
   6.400   0.8822   0.01667   0.00835  -0.0374  0.2336  1.0000  -2.2971   0.0000   0.0000   0.0000   0.2859
   6.500   0.8898   0.01694   0.00861  -0.0368  0.2229  1.0000  -2.3443   0.0000   0.0000   0.0000   0.2847
   6.600   0.8964   0.01726   0.00886  -0.0361  0.2132  1.0000  -2.3899   0.0000   0.0000   0.0000   0.2835
   6.700   0.9033   0.01762   0.00916  -0.0355  0.2044  1.0000  -2.4352   0.0000   0.0000   0.0000   0.2824
   6.800   0.9111   0.01787   0.00942  -0.0349  0.1957  1.0000  -2.4835   0.0000   0.0000   0.0000   0.2813
   6.900   0.9175   0.01826   0.00971  -0.0342  0.1880  1.0000  -2.5289   0.0000   0.0000   0.0000   0.2802
   7.000   0.9251   0.01862   0.01006  -0.0336  0.1808  1.0000  -2.5755   0.0000   0.0000   0.0000   0.2791
   7.100   0.9330   0.01887   0.01034  -0.0331  0.1738  1.0000  -2.6243   0.0000   0.0000   0.0000   0.2782
   7.200   0.9401   0.01921   0.01063  -0.0325  0.1674  1.0000  -2.6718   0.0000   0.0000   0.0000   0.2771
   7.300   0.9472   0.01977   0.01107  -0.0320  0.1608  1.0000  -2.7173   0.0000   0.0000   0.0000   0.2762
   7.400   0.9554   0.01995   0.01134  -0.0314  0.1553  1.0000  -2.7670   0.0000   0.0000   0.0000   0.2753
   7.500   0.9631   0.02020   0.01161  -0.0309  0.1497  1.0000  -2.8166   0.0000   0.0000   0.0000   0.2743
   7.600   0.9702   0.02053   0.01194  -0.0303  0.1446  1.0000  -2.8712   0.0000   0.0000   0.0000   0.2734
   7.700   0.9782   0.02126   0.01254  -0.0300  0.1387  1.0000  -2.9263   0.0000   0.0000   0.0000   0.2727
   7.800   0.9864   0.02144   0.01283  -0.0295  0.1352  1.0000  -2.9844   0.0000   0.0000   0.0000   0.2718
   7.900   0.9944   0.02170   0.01315  -0.0290  0.1311  1.0000  -3.0426   0.0000   0.0000   0.0000   0.2709
   8.000   1.0020   0.02197   0.01343  -0.0284  0.1269  1.0000  -3.1013   0.0000   0.0000   0.0000   0.2700
   8.100   1.0092   0.02228   0.01373  -0.0279  0.1230  1.0000  -3.1600   0.0000   0.0000   0.0000   0.2692
   8.200   1.0174   0.02299   0.01434  -0.0277  0.1181  1.0000  -3.2183   0.0000   0.0000   0.0000   0.2686
   8.300   1.0259   0.02342   0.01482  -0.0273  0.1148  1.0000  -3.2766   0.0000   0.0000   0.0000   0.2679
   8.400   1.0336   0.02365   0.01513  -0.0267  0.1118  1.0000  -3.3345   0.0000   0.0000   0.0000   0.2670
   8.500   1.0416   0.02397   0.01551  -0.0262  0.1087  1.0000  -3.3926   0.0000   0.0000   0.0000   0.2663
   8.600   1.0494   0.02430   0.01588  -0.0257  0.1056  1.0000  -3.4509   0.0000   0.0000   0.0000   0.2655
   8.700   1.0568   0.02465   0.01624  -0.0252  0.1027  1.0000  -3.5093   0.0000   0.0000   0.0000   0.2647
   8.800   1.0643   0.02510   0.01667  -0.0248  0.0998  1.0000  -3.5680   0.0000   0.0000   0.0000   0.2640
   8.900   1.0763   0.02653   0.01803  -0.0253  0.0950  1.0000  -3.6258   0.0000   0.0000   0.0000   0.2641
   9.000   1.0830   0.02668   0.01828  -0.0246  0.0934  1.0000  -3.6878   0.0000   0.0000   0.0000   0.2632
   9.100   1.0896   0.02692   0.01862  -0.0239  0.0911  1.0000  -3.7513   0.0000   0.0000   0.0000   0.2622
   9.200   1.0963   0.02721   0.01898  -0.0232  0.0883  1.0000  -3.8150   0.0000   0.0000   0.0000   0.2614
   9.300   1.1028   0.02751   0.01933  -0.0225  0.0856  1.0000  -3.8798   0.0000   0.0000   0.0000   0.2605
   9.400   1.1091   0.02782   0.01970  -0.0219  0.0830  1.0000  -3.9457   0.0000   0.0000   0.0000   0.2597
   9.500   1.1156   0.02821   0.02009  -0.0213  0.0806  1.0000  -4.0121   0.0000   0.0000   0.0000   0.2589
   9.600   1.1230   0.02886   0.02073  -0.0209  0.0783  1.0000  -4.0779   0.0000   0.0000   0.0000   0.2583
   9.700   1.1350   0.03104   0.02295  -0.0216  0.0746  1.0000  -4.1292   0.0000   0.0000   0.0000   0.2586
   9.800   1.1412   0.03135   0.02338  -0.0208  0.0736  1.0000  -4.1877   0.0000   0.0000   0.0000   0.2577
   9.900   1.1475   0.03179   0.02393  -0.0201  0.0724  1.0000  -4.2441   0.0000   0.0000   0.0000   0.2568
  10.000   1.1540   0.03235   0.02459  -0.0194  0.0709  1.0000  -4.2985   0.0000   0.0000   0.0000   0.2560
  10.100   1.1604   0.03297   0.02532  -0.0188  0.0695  1.0000  -4.3667   0.0000   0.0000   0.0000   0.2552
  10.200   1.1665   0.03363   0.02608  -0.0181  0.0680  1.0000  -4.4440   0.0000   0.0000   0.0000   0.2545
  10.300   1.1721   0.03427   0.02681  -0.0174  0.0666  1.0000  -4.5209   0.0000   0.0000   0.0000   0.2536
  10.400   1.1774   0.03485   0.02747  -0.0166  0.0651  1.0000  -4.5996   0.0000   0.0000   0.0000   0.2528
  10.500   1.1825   0.03537   0.02803  -0.0159  0.0637  1.0000  -4.6809   0.0000   0.0000   0.0000   0.2520
  10.600   1.1875   0.03583   0.02853  -0.0152  0.0623  1.0000  -4.7658   0.0000   0.0000   0.0000   0.2512
  10.700   1.1924   0.03630   0.02901  -0.0145  0.0610  1.0000  -4.8526   0.0000   0.0000   0.0000   0.2504
  10.800   1.1972   0.03696   0.02968  -0.0138  0.0596  1.0000  -4.9371   0.0000   0.0000   0.0000   0.2497
  10.900   1.2013   0.03819   0.03096  -0.0133  0.0581  1.0000  -5.0177   0.0000   0.0000   0.0000   0.2491
  11.000   1.2024   0.04055   0.03350  -0.0126  0.0567  1.0000  -5.0490   0.0000   0.0000   0.0000   0.2484
  11.100   1.2000   0.04295   0.03609  -0.0115  0.0560  1.0000  -5.0519   0.0000   0.0000   0.0000   0.2474
  11.200   1.2015   0.04352   0.03677  -0.0103  0.0557  1.0000  -5.1190   0.0000   0.0000   0.0000   0.2462
  11.300   1.2020   0.04417   0.03754  -0.0090  0.0553  1.0000  -5.1787   0.0000   0.0000   0.0000   0.2450
  11.400   1.2017   0.04488   0.03836  -0.0076  0.0550  1.0000  -5.2307   0.0000   0.0000   0.0000   0.2437
  11.500   1.2005   0.04567   0.03926  -0.0061  0.0547  1.0000  -5.2764   0.0000   0.0000   0.0000   0.2424
  11.600   1.1988   0.04653   0.04023  -0.0047  0.0543  1.0000  -5.3168   0.0000   0.0000   0.0000   0.2411
  11.700   1.1965   0.04745   0.04126  -0.0032  0.0540  1.0000  -5.3516   0.0000   0.0000   0.0000   0.2397
  11.800   1.1936   0.04842   0.04235  -0.0018  0.0537  1.0000  -5.3814   0.0000   0.0000   0.0000   0.2384
  11.900   1.1901   0.04946   0.04350  -0.0004  0.0535  1.0000  -5.4056   0.0000   0.0000   0.0000   0.2371
  12.000   1.1859   0.05055   0.04470   0.0010  0.0532  1.0000  -5.4247   0.0000   0.0000   0.0000   0.2358
  12.100   1.1812   0.05169   0.04595   0.0023  0.0530  1.0000  -5.4384   0.0000   0.0000   0.0000   0.2346
  12.200   1.1758   0.05289   0.04726   0.0035  0.0528  1.0000  -5.4469   0.0000   0.0000   0.0000   0.2334
  12.300   1.1698   0.05415   0.04863   0.0047  0.0526  1.0000  -5.4501   0.0000   0.0000   0.0000   0.2322
  12.400   1.1633   0.05548   0.05006   0.0058  0.0525  1.0000  -5.4481   0.0000   0.0000   0.0000   0.2311
  12.500   1.1562   0.05688   0.05156   0.0068  0.0524  1.0000  -5.4412   0.0000   0.0000   0.0000   0.2301
  12.600   1.1485   0.05835   0.05313   0.0076  0.0523  1.0000  -5.4288   0.0000   0.0000   0.0000   0.2292
  12.700   1.1403   0.05991   0.05479   0.0084  0.0522  1.0000  -5.4110   0.0000   0.0000   0.0000   0.2284
  12.800   1.1316   0.06156   0.05654   0.0089  0.0522  1.0000  -5.3879   0.0000   0.0000   0.0000   0.2276
  12.900   1.1223   0.06332   0.05839   0.0093  0.0522  1.0000  -5.3590   0.0000   0.0000   0.0000   0.2271
  13.000   1.1124   0.06519   0.06035   0.0096  0.0522  1.0000  -5.3242   0.0000   0.0000   0.0000   0.2266
  13.100   1.1021   0.06719   0.06245   0.0096  0.0522  1.0000  -5.2832   0.0000   0.0000   0.0000   0.2264
  13.200   1.0911   0.06935   0.06469   0.0094  0.0523  1.0000  -5.2353   0.0000   0.0000   0.0000   0.2263
  13.300   1.0796   0.07168   0.06710   0.0089  0.0524  1.0000  -5.1799   0.0000   0.0000   0.0000   0.2265
  13.400   1.0675   0.07419   0.06969   0.0082  0.0526  1.0000  -5.1162   0.0000   0.0000   0.0000   0.2269
  13.500   1.0547   0.07694   0.07252   0.0071  0.0527  1.0000  -5.0430   0.0000   0.0000   0.0000   0.2276
  13.600   1.0411   0.07998   0.07563   0.0057  0.0530  1.0000  -4.9585   0.0000   0.0000   0.0000   0.2287
  13.700   1.0266   0.08336   0.07908   0.0039  0.0532  1.0000  -4.8599   0.0000   0.0000   0.0000   0.2302
  13.800   1.0110   0.08717   0.08295   0.0017  0.0536  1.0000  -4.7436   0.0000   0.0000   0.0000   0.2322
  13.900   0.9939   0.09154   0.08737  -0.0010  0.0539  1.0000  -4.6038   0.0000   0.0000   0.0000   0.2348
  14.000   0.9749   0.09666   0.09255  -0.0044  0.0544  1.0000  -4.4315   0.0000   0.0000   0.0000   0.2381
  14.100   0.9534   0.10281   0.09873  -0.0083  0.0550  1.0000  -4.2160   0.0000   0.0000   0.0000   0.2423
  14.200   0.9304   0.10999   0.10592  -0.0126  0.0557  1.0000  -3.9709   0.0000   0.0000   0.0000   0.2472
  14.300   0.8274   0.14514   0.14088  -0.0342  0.0682  1.0000  -2.4602   0.0000   0.0000   0.0000   0.2767
  14.400   0.8252   0.14802   0.14376  -0.0354  0.0693  1.0000  -2.4194   0.0000   0.0000   0.0000   0.2782
  14.500   0.8244   0.15058   0.14632  -0.0363  0.0704  1.0000  -2.4014   0.0000   0.0000   0.0000   0.2792
  14.600   0.8253   0.15281   0.14856  -0.0369  0.0716  1.0000  -2.4048   0.0000   0.0000   0.0000   0.2797
  14.800   0.8273   0.16678   0.16258  -0.0384  0.0948  1.0000  -2.2251   0.0000   0.0000   0.0000   0.2818
  14.900   0.8263   0.16891   0.16471  -0.0397  0.0947  1.0000  -2.2051   0.0000   0.0000   0.0000   0.2833
  15.000   0.8251   0.17087   0.16666  -0.0411  0.0944  1.0000  -2.1813   0.0000   0.0000   0.0000   0.2850


