xflr5 v6.61

 Calculated polar for: SG6041

 1 1 Reynolds number fixed          Mach number fixed         

 xtrf =   1.000 (top)        1.000 (bottom)
 Mach =   0.000     Re =     0.225 e 6     Ncrit =   9.000

  alpha     CL        CD       CDp       Cm    Top Xtr Bot Xtr   Cpmin    Chinge    XCp    
 ------- -------- --------- --------- -------- ------- ------- -------- --------- ---------
 -10.000  -0.2038   0.05733   0.05482  -0.0272  0.9979  0.0456  -0.8597   0.0000   0.0000   0.0000   0.1194
  -9.900  -0.2001   0.05602   0.05351  -0.0284  0.9969  0.0463  -0.8626   0.0000   0.0000   0.0000   0.1113
  -9.800  -0.1965   0.05470   0.05219  -0.0296  0.9959  0.0471  -0.8675   0.0000   0.0000   0.0000   0.1027
  -9.700  -0.1931   0.05337   0.05087  -0.0308  0.9949  0.0478  -0.8745   0.0000   0.0000   0.0000   0.0938
  -9.600  -0.1900   0.05204   0.04954  -0.0321  0.9939  0.0486  -0.8839   0.0000   0.0000   0.0000   0.0846
  -9.500  -0.1873   0.05072   0.04821  -0.0334  0.9931  0.0495  -0.8963   0.0000   0.0000   0.0000   0.0751
  -9.300  -0.4358   0.09202   0.08869  -0.0438  1.0000  0.0384  -2.2018   0.0000   0.0000   0.0000   0.1422
  -9.200  -0.4409   0.08965   0.08634  -0.0440  1.0000  0.0388  -2.2322   0.0000   0.0000   0.0000   0.1431
  -9.100  -0.4441   0.08787   0.08459  -0.0441  1.0000  0.0391  -2.2435   0.0000   0.0000   0.0000   0.1436
  -9.000  -0.4446   0.08656   0.08329  -0.0437  1.0000  0.0394  -2.2229   0.0000   0.0000   0.0000   0.1449
  -8.900  -0.4449   0.08540   0.08215  -0.0432  1.0000  0.0396  -2.1990   0.0000   0.0000   0.0000   0.1462
  -8.800  -0.4459   0.08425   0.08101  -0.0429  1.0000  0.0399  -2.1822   0.0000   0.0000   0.0000   0.1473
  -8.700  -0.4475   0.08309   0.07987  -0.0426  1.0000  0.0401  -2.1718   0.0000   0.0000   0.0000   0.1483
  -8.600  -0.4500   0.08190   0.07871  -0.0425  1.0000  0.0403  -2.1681   0.0000   0.0000   0.0000   0.1493
  -8.500  -0.4535   0.08069   0.07752  -0.0424  1.0000  0.0404  -2.1722   0.0000   0.0000   0.0000   0.1504
  -8.400  -0.4586   0.07944   0.07629  -0.0424  1.0000  0.0405  -2.1872   0.0000   0.0000   0.0000   0.1516
  -8.300  -0.4666   0.07808   0.07497  -0.0426  1.0000  0.0405  -2.2225   0.0000   0.0000   0.0000   0.1529
  -8.200  -0.4790   0.07677   0.07369  -0.0427  1.0000  0.0404  -2.2831   0.0000   0.0000   0.0000   0.1553
  -8.100  -0.4922   0.07588   0.07280  -0.0417  1.0000  0.0403  -2.3359   0.0000   0.0000   0.0000   0.1599
  -8.000  -0.5019   0.07503   0.07196  -0.0405  1.0000  0.0403  -2.3649   0.0000   0.0000   0.0000   0.1642
  -7.900  -0.5084   0.07405   0.07099  -0.0396  1.0000  0.0404  -2.3774   0.0000   0.0000   0.0000   0.1672
  -7.800  -0.5145   0.07308   0.07002  -0.0386  1.0000  0.0405  -2.3869   0.0000   0.0000   0.0000   0.1701
  -7.700  -0.5202   0.07211   0.06905  -0.0377  1.0000  0.0406  -2.3937   0.0000   0.0000   0.0000   0.1728
  -7.600  -0.5254   0.07113   0.06807  -0.0367  1.0000  0.0408  -2.3980   0.0000   0.0000   0.0000   0.1754
  -7.500  -0.5301   0.07015   0.06709  -0.0358  1.0000  0.0409  -2.4001   0.0000   0.0000   0.0000   0.1779
  -7.400  -0.5344   0.06915   0.06609  -0.0350  1.0000  0.0411  -2.4001   0.0000   0.0000   0.0000   0.1801
  -7.300  -0.5383   0.06815   0.06507  -0.0341  1.0000  0.0413  -2.3983   0.0000   0.0000   0.0000   0.1822
  -7.200  -0.5416   0.06713   0.06405  -0.0333  1.0000  0.0415  -2.3939   0.0000   0.0000   0.0000   0.1842
  -7.100  -0.5443   0.06612   0.06302  -0.0325  1.0000  0.0417  -2.3865   0.0000   0.0000   0.0000   0.1861
  -7.000  -0.5467   0.06509   0.06198  -0.0318  1.0000  0.0419  -2.3783   0.0000   0.0000   0.0000   0.1878
  -6.900  -0.5488   0.06404   0.06091  -0.0311  1.0000  0.0422  -2.3693   0.0000   0.0000   0.0000   0.1894
  -6.800  -0.5504   0.06296   0.05982  -0.0304  1.0000  0.0425  -2.3598   0.0000   0.0000   0.0000   0.1909
  -6.700  -0.5517   0.06188   0.05870  -0.0297  1.0000  0.0428  -2.3496   0.0000   0.0000   0.0000   0.1923
  -6.600  -0.5527   0.06077   0.05757  -0.0291  1.0000  0.0432  -2.3389   0.0000   0.0000   0.0000   0.1935
  -6.500  -0.5533   0.05965   0.05642  -0.0285  1.0000  0.0436  -2.3277   0.0000   0.0000   0.0000   0.1947
  -6.400  -0.5526   0.05846   0.05519  -0.0281  0.9999  0.0440  -2.3143   0.0000   0.0000   0.0000   0.1954
  -6.300  -0.5439   0.05672   0.05338  -0.0296  0.9984  0.0449  -2.2844   0.0000   0.0000   0.0000   0.1920
  -6.200  -0.5349   0.05499   0.05157  -0.0310  0.9967  0.0458  -2.2575   0.0000   0.0000   0.0000   0.1884
  -6.100  -0.5255   0.05325   0.04974  -0.0323  0.9949  0.0469  -2.2327   0.0000   0.0000   0.0000   0.1847
  -6.000  -0.5153   0.05152   0.04791  -0.0337  0.9933  0.0481  -2.2261   0.0000   0.0000   0.0000   0.1808
  -5.900  -0.5041   0.04987   0.04613  -0.0351  0.9917  0.0496  -2.2264   0.0000   0.0000   0.0000   0.1766
  -5.800  -0.4912   0.04863   0.04470  -0.0363  0.9903  0.0516  -2.2328   0.0000   0.0000   0.0000   0.1722
  -5.700  -0.4739   0.05067   0.04652  -0.0361  0.9882  0.0543  -2.1881   0.0000   0.0000   0.0000   0.1699
  -5.600  -0.4647   0.04991   0.04563  -0.0364  0.9861  0.0546  -2.1748   0.0000   0.0000   0.0000   0.1679
  -5.500  -0.4556   0.04878   0.04437  -0.0368  0.9841  0.0547  -2.1652   0.0000   0.0000   0.0000   0.1655
  -5.400  -0.4461   0.04750   0.04297  -0.0372  0.9821  0.0548  -2.1560   0.0000   0.0000   0.0000   0.1627
  -5.300  -0.4521   0.03998   0.03520  -0.0387  0.9800  0.0573  -2.2864   0.0000   0.0000   0.0000   0.1606
  -5.000  -0.4185   0.03178   0.02638  -0.0387  0.9762  0.0339  -2.5823   0.0000   0.0000   0.0000   0.1534
  -4.900  -0.4071   0.02768   0.02148  -0.0375  0.9752  0.0260  -2.9426   0.0000   0.0000   0.0000   0.1535
  -4.800  -0.3922   0.02755   0.02129  -0.0381  0.9742  0.0255  -2.8758   0.0000   0.0000   0.0000   0.1483
  -4.700  -0.3800   0.02606   0.01966  -0.0385  0.9734  0.0248  -2.8826   0.0000   0.0000   0.0000   0.1441
  -4.600  -0.3679   0.02451   0.01789  -0.0388  0.9727  0.0244  -2.9022   0.0000   0.0000   0.0000   0.1398
  -4.500  -0.3545   0.02338   0.01660  -0.0393  0.9720  0.0241  -2.9009   0.0000   0.0000   0.0000   0.1344
  -4.400  -0.3427   0.02249   0.01556  -0.0394  0.9709  0.0240  -2.8921   0.0000   0.0000   0.0000   0.1303
  -4.300  -0.3360   0.02178   0.01475  -0.0384  0.9684  0.0240  -2.8824   0.0000   0.0000   0.0000   0.1309
  -4.200  -0.3264   0.02110   0.01397  -0.0380  0.9664  0.0240  -2.8666   0.0000   0.0000   0.0000   0.1287
  -4.100  -0.3156   0.02048   0.01326  -0.0379  0.9645  0.0242  -2.8458   0.0000   0.0000   0.0000   0.1252
  -4.000  -0.3040   0.01993   0.01263  -0.0378  0.9628  0.0245  -2.8200   0.0000   0.0000   0.0000   0.1207
  -3.900  -0.2918   0.01947   0.01210  -0.0380  0.9611  0.0248  -2.7883   0.0000   0.0000   0.0000   0.1150
  -3.800  -0.2789   0.01914   0.01170  -0.0382  0.9595  0.0253  -2.7473   0.0000   0.0000   0.0000   0.1080
  -3.700  -0.2684   0.01786   0.01037  -0.0380  0.9583  0.0268  -2.7888   0.0000   0.0000   0.0000   0.1032
  -3.600  -0.2559   0.01733   0.00984  -0.0384  0.9569  0.0288  -2.7551   0.0000   0.0000   0.0000   0.0949
  -3.500  -0.2419   0.01707   0.00959  -0.0390  0.9555  0.0315  -2.6992   0.0000   0.0000   0.0000   0.0837
  -3.400  -0.2274   0.01682   0.00932  -0.0396  0.9542  0.0351  -2.6538   0.0000   0.0000   0.0000   0.0705
  -3.300  -0.2134   0.01638   0.00889  -0.0402  0.9530  0.0415  -2.6086   0.0000   0.0000   0.0000   0.0561
  -3.200  -0.1982   0.01625   0.00882  -0.0411  0.9519  0.0503  -2.5230   0.0000   0.0000   0.0000   0.0367
  -3.100  -0.1840   0.01579   0.00837  -0.0418  0.9509  0.0617  -2.4786   0.0000   0.0000   0.0000   0.0171
  -3.000  -0.1680   0.01569   0.00827  -0.0428  0.9500  0.0746  -2.3850   0.0000   0.0000   0.0000  -0.0109
  -2.900  -0.1533   0.01528   0.00793  -0.0436  0.9491  0.0900  -2.3052   0.0000   0.0000   0.0000  -0.0412
  -2.800  -0.1514   0.01515   0.00778  -0.0418  0.9448  0.0961  -2.2577   0.0000   0.0000   0.0000  -0.0321
  -2.700  -0.1432   0.01489   0.00758  -0.0413  0.9418  0.1094  -2.1865   0.0000   0.0000   0.0000  -0.0446
  -2.600  -0.1324   0.01467   0.00742  -0.0413  0.9394  0.1281  -2.1022   0.0000   0.0000   0.0000  -0.0684
  -2.500  -0.1211   0.01431   0.00726  -0.0415  0.9373  0.1666  -2.0164   0.0000   0.0000   0.0000  -0.0995
  -2.400  -0.1114   0.01361   0.00711  -0.0417  0.9353  0.2838  -1.9361   0.0000   0.0000   0.0000  -0.1318
  -2.300  -0.1046   0.01267   0.00704  -0.0414  0.9334  0.4882  -1.8646   0.0000   0.0000   0.0000  -0.1528
  -2.200  -0.0969   0.01219   0.00720  -0.0404  0.9316  0.6458  -1.7854   0.0000   0.0000   0.0000  -0.1744
  -2.100  -0.0848   0.01208   0.00727  -0.0403  0.9302  0.7092  -1.6888   0.0000   0.0000   0.0000  -0.2331
  -2.000  -0.0713   0.01204   0.00729  -0.0404  0.9289  0.7448  -1.5877   0.0000   0.0000   0.0000  -0.3258
  -1.900  -0.0567   0.01201   0.00730  -0.0408  0.9278  0.7690  -1.4835   0.0000   0.0000   0.0000  -0.4802
  -1.800  -0.0413   0.01198   0.00728  -0.0413  0.9268  0.7871  -1.3775   0.0000   0.0000   0.0000  -0.7654
  -1.700  -0.0253   0.01198   0.00724  -0.0421  0.9259  0.8033  -1.2676   0.0000   0.0000   0.0000  -1.4385
  -1.600  -0.0268   0.01199   0.00729  -0.0394  0.9204  0.8116  -1.2308   0.0000   0.0000   0.0000  -1.2359
  -1.500  -0.0188   0.01199   0.00727  -0.0385  0.9169  0.8244  -1.1578   0.0000   0.0000   0.0000  -1.8242
  -1.400  -0.0078   0.01196   0.00726  -0.0382  0.9144  0.8368  -1.0742   0.0000   0.0000   0.0000  -4.6925
  -1.300   0.0044   0.01193   0.00722  -0.0381  0.9123  0.8504  -0.9877   0.0000   0.0000   0.0000   8.9678
  -1.200   0.0176   0.01188   0.00719  -0.0382  0.9105  0.8613  -0.8990   0.0000   0.0000   0.0000   2.4363
  -1.100   0.0315   0.01184   0.00714  -0.0384  0.9089  0.8726  -0.8101   0.0000   0.0000   0.0000   1.4816
  -1.000   0.0465   0.01180   0.00709  -0.0389  0.9076  0.8826  -0.7304   0.0000   0.0000   0.0000   1.0924
  -0.900   0.0621   0.01175   0.00704  -0.0394  0.9064  0.8926  -0.6584   0.0000   0.0000   0.0000   0.8890
  -0.800   0.0780   0.01171   0.00698  -0.0401  0.9054  0.9025  -0.5868   0.0000   0.0000   0.0000   0.7660
  -0.700   0.0959   0.01169   0.00697  -0.0409  0.9047  0.9142  -0.5112   0.0000   0.0000   0.0000   0.6782
  -0.600   0.1145   0.01170   0.00698  -0.0418  0.9041  0.9282  -0.4444   0.0000   0.0000   0.0000   0.6165
  -0.500   0.1384   0.01179   0.00704  -0.0438  0.9040  0.9411  -0.3953   0.0000   0.0000   0.0000   0.5667
  -0.400   0.1605   0.01180   0.00702  -0.0456  0.9035  0.9493  -0.4030   0.0000   0.0000   0.0000   0.5340
  -0.300   0.1864   0.01177   0.00697  -0.0483  0.9032  0.9522  -0.4222   0.0000   0.0000   0.0000   0.5091
  -0.200   0.2102   0.01171   0.00688  -0.0507  0.9027  0.9540  -0.4413   0.0000   0.0000   0.0000   0.4909
  -0.100   0.2331   0.01164   0.00678  -0.0530  0.9020  0.9553  -0.4600   0.0000   0.0000   0.0000   0.4766
   0.000   0.2481   0.01164   0.00677  -0.0538  0.8984  0.9582  -0.4742   0.0000   0.0000   0.0000   0.4660
   0.100   0.2637   0.01161   0.00673  -0.0547  0.8949  0.9610  -0.4899   0.0000   0.0000   0.0000   0.4564
   0.200   0.2809   0.01154   0.00664  -0.0558  0.8921  0.9632  -0.5068   0.0000   0.0000   0.0000   0.4478
   0.300   0.2986   0.01144   0.00652  -0.0571  0.8896  0.9652  -0.5247   0.0000   0.0000   0.0000   0.4400
   0.400   0.3162   0.01132   0.00638  -0.0582  0.8872  0.9671  -0.5440   0.0000   0.0000   0.0000   0.4330
   0.500   0.3335   0.01119   0.00624  -0.0593  0.8849  0.9689  -0.5633   0.0000   0.0000   0.0000   0.4267
   0.600   0.3507   0.01105   0.00608  -0.0604  0.8827  0.9707  -0.5845   0.0000   0.0000   0.0000   0.4209
   0.700   0.3704   0.01090   0.00592  -0.0620  0.8808  0.9715  -0.6087   0.0000   0.0000   0.0000   0.4159
   0.800   0.3906   0.01076   0.00576  -0.0637  0.8789  0.9721  -0.6333   0.0000   0.0000   0.0000   0.4115
   0.900   0.4083   0.01066   0.00566  -0.0650  0.8756  0.9734  -0.6559   0.0000   0.0000   0.0000   0.4075
   1.000   0.4233   0.01061   0.00561  -0.0658  0.8705  0.9756  -0.6763   0.0000   0.0000   0.0000   0.4037
   1.100   0.4399   0.01050   0.00550  -0.0668  0.8660  0.9773  -0.6982   0.0000   0.0000   0.0000   0.4001
   1.200   0.4572   0.01036   0.00535  -0.0679  0.8620  0.9789  -0.7211   0.0000   0.0000   0.0000   0.3967
   1.300   0.4748   0.01022   0.00521  -0.0691  0.8583  0.9804  -0.7453   0.0000   0.0000   0.0000   0.3936
   1.400   0.4923   0.01009   0.00506  -0.0702  0.8549  0.9819  -0.7723   0.0000   0.0000   0.0000   0.3906
   1.500   0.5067   0.01003   0.00500  -0.0709  0.8498  0.9846  -0.7961   0.0000   0.0000   0.0000   0.3877
   1.600   0.5200   0.00998   0.00496  -0.0713  0.8438  0.9877  -0.8193   0.0000   0.0000   0.0000   0.3849
   1.700   0.5343   0.00990   0.00488  -0.0719  0.8384  0.9900  -0.8475   0.0000   0.0000   0.0000   0.3822
   1.800   0.5508   0.00978   0.00474  -0.0729  0.8334  0.9914  -0.8786   0.0000   0.0000   0.0000   0.3799
   1.900   0.5678   0.00966   0.00460  -0.0739  0.8285  0.9929  -0.9106   0.0000   0.0000   0.0000   0.3778
   2.000   0.5825   0.00960   0.00456  -0.0748  0.8208  0.9958  -0.9397   0.0000   0.0000   0.0000   0.3758
   2.100   0.5982   0.00951   0.00447  -0.0757  0.8135  0.9981  -0.9704   0.0000   0.0000   0.0000   0.3739
   2.200   0.6148   0.00940   0.00432  -0.0766  0.8070  0.9997  -1.0027   0.0000   0.0000   0.0000   0.3719
   2.300   0.6209   0.00937   0.00429  -0.0757  0.7988  1.0000  -1.0221   0.0000   0.0000   0.0000   0.3691
   2.400   0.6266   0.00931   0.00423  -0.0746  0.7904  1.0000  -1.0412   0.0000   0.0000   0.0000   0.3662
   2.500   0.6352   0.00924   0.00412  -0.0740  0.7831  1.0000  -1.0660   0.0000   0.0000   0.0000   0.3636
   2.600   0.6398   0.00921   0.00413  -0.0728  0.7741  1.0000  -1.0873   0.0000   0.0000   0.0000   0.3607
   2.700   0.6460   0.00917   0.00407  -0.0718  0.7651  1.0000  -1.1110   0.0000   0.0000   0.0000   0.3580
   2.800   0.6540   0.00913   0.00399  -0.0711  0.7572  1.0000  -1.1375   0.0000   0.0000   0.0000   0.3555
   2.900   0.6585   0.00912   0.00398  -0.0698  0.7476  1.0000  -1.1589   0.0000   0.0000   0.0000   0.3527
   3.000   0.6655   0.00910   0.00392  -0.0689  0.7383  1.0000  -1.1843   0.0000   0.0000   0.0000   0.3502
   3.100   0.6718   0.00910   0.00390  -0.0679  0.7284  1.0000  -1.2085   0.0000   0.0000   0.0000   0.3477
   3.200   0.6781   0.00910   0.00387  -0.0669  0.7170  1.0000  -1.2331   0.0000   0.0000   0.0000   0.3451
   3.300   0.6848   0.00912   0.00384  -0.0660  0.7054  1.0000  -1.2584   0.0000   0.0000   0.0000   0.3427
   3.400   0.6912   0.00915   0.00382  -0.0649  0.6920  1.0000  -1.2833   0.0000   0.0000   0.0000   0.3403
   3.500   0.6978   0.00919   0.00381  -0.0640  0.6783  1.0000  -1.3087   0.0000   0.0000   0.0000   0.3379
   3.600   0.7047   0.00925   0.00379  -0.0630  0.6635  1.0000  -1.3348   0.0000   0.0000   0.0000   0.3356
   3.700   0.7111   0.00932   0.00380  -0.0620  0.6475  1.0000  -1.3601   0.0000   0.0000   0.0000   0.3333
   3.800   0.7178   0.00941   0.00381  -0.0611  0.6312  1.0000  -1.3861   0.0000   0.0000   0.0000   0.3310
   3.900   0.7244   0.00952   0.00383  -0.0601  0.6142  1.0000  -1.4120   0.0000   0.0000   0.0000   0.3288
   4.000   0.7308   0.00963   0.00387  -0.0591  0.5956  1.0000  -1.4376   0.0000   0.0000   0.0000   0.3266
   4.100   0.7371   0.00976   0.00391  -0.0581  0.5765  1.0000  -1.4633   0.0000   0.0000   0.0000   0.3245
   4.200   0.7433   0.00991   0.00396  -0.0571  0.5570  1.0000  -1.4888   0.0000   0.0000   0.0000   0.3223
   4.300   0.7493   0.01008   0.00406  -0.0560  0.5372  1.0000  -1.5142   0.0000   0.0000   0.0000   0.3202
   4.400   0.7552   0.01026   0.00413  -0.0550  0.5173  1.0000  -1.5395   0.0000   0.0000   0.0000   0.3182
   4.500   0.7614   0.01043   0.00422  -0.0540  0.4973  1.0000  -1.5652   0.0000   0.0000   0.0000   0.3162
   4.600   0.7678   0.01061   0.00431  -0.0531  0.4779  1.0000  -1.5931   0.0000   0.0000   0.0000   0.3143
   4.700   0.7742   0.01080   0.00441  -0.0521  0.4586  1.0000  -1.6242   0.0000   0.0000   0.0000   0.3124
   4.800   0.7803   0.01100   0.00451  -0.0512  0.4391  1.0000  -1.6602   0.0000   0.0000   0.0000   0.3106
   4.900   0.7864   0.01122   0.00463  -0.0502  0.4195  1.0000  -1.6964   0.0000   0.0000   0.0000   0.3088
   5.100   0.7990   0.01165   0.00487  -0.0485  0.3795  1.0000  -1.7705   0.0000   0.0000   0.0000   0.3054
   5.200   0.8055   0.01188   0.00500  -0.0477  0.3603  1.0000  -1.8082   0.0000   0.0000   0.0000   0.3038
   5.300   0.8120   0.01211   0.00514  -0.0468  0.3419  1.0000  -1.8460   0.0000   0.0000   0.0000   0.3022
   5.400   0.8183   0.01236   0.00528  -0.0460  0.3242  1.0000  -1.8837   0.0000   0.0000   0.0000   0.3006
   5.500   0.8252   0.01258   0.00543  -0.0453  0.3067  1.0000  -1.9227   0.0000   0.0000   0.0000   0.2992
   5.600   0.8323   0.01280   0.00558  -0.0446  0.2909  1.0000  -1.9641   0.0000   0.0000   0.0000   0.2978
   5.700   0.8390   0.01305   0.00574  -0.0438  0.2765  1.0000  -2.0092   0.0000   0.0000   0.0000   0.2964
   5.800   0.8464   0.01327   0.00590  -0.0432  0.2622  1.0000  -2.0563   0.0000   0.0000   0.0000   0.2951
   5.900   0.8535   0.01351   0.00611  -0.0426  0.2495  1.0000  -2.1030   0.0000   0.0000   0.0000   0.2938
   6.000   0.8608   0.01374   0.00628  -0.0419  0.2369  1.0000  -2.1502   0.0000   0.0000   0.0000   0.2925
   6.100   0.8681   0.01397   0.00647  -0.0413  0.2258  1.0000  -2.1978   0.0000   0.0000   0.0000   0.2913
   6.200   0.8756   0.01421   0.00664  -0.0407  0.2148  1.0000  -2.2460   0.0000   0.0000   0.0000   0.2901
   6.300   0.8826   0.01447   0.00685  -0.0400  0.2051  1.0000  -2.2931   0.0000   0.0000   0.0000   0.2889
   6.400   0.8906   0.01467   0.00703  -0.0395  0.1956  1.0000  -2.3432   0.0000   0.0000   0.0000   0.2878
   6.500   0.8971   0.01498   0.00726  -0.0388  0.1867  1.0000  -2.3892   0.0000   0.0000   0.0000   0.2865
   6.600   0.9053   0.01518   0.00746  -0.0383  0.1791  1.0000  -2.4397   0.0000   0.0000   0.0000   0.2855
   6.700   0.9130   0.01541   0.00767  -0.0377  0.1714  1.0000  -2.4897   0.0000   0.0000   0.0000   0.2844
   6.800   0.9192   0.01574   0.00792  -0.0370  0.1638  1.0000  -2.5356   0.0000   0.0000   0.0000   0.2832
   6.900   0.9273   0.01596   0.00814  -0.0365  0.1575  1.0000  -2.5864   0.0000   0.0000   0.0000   0.2822
   7.000   0.9355   0.01615   0.00834  -0.0360  0.1511  1.0000  -2.6385   0.0000   0.0000   0.0000   0.2812
   7.100   0.9425   0.01642   0.00856  -0.0354  0.1449  1.0000  -2.6877   0.0000   0.0000   0.0000   0.2802
   7.200   0.9483   0.01684   0.00891  -0.0345  0.1383  1.0000  -2.7316   0.0000   0.0000   0.0000   0.2790
   7.300   0.9573   0.01697   0.00910  -0.0342  0.1341  1.0000  -2.7863   0.0000   0.0000   0.0000   0.2781
   7.400   0.9654   0.01716   0.00931  -0.0337  0.1293  1.0000  -2.8391   0.0000   0.0000   0.0000   0.2772
   7.500   0.9728   0.01741   0.00953  -0.0331  0.1246  1.0000  -2.8934   0.0000   0.0000   0.0000   0.2762
   7.600   0.9787   0.01780   0.00989  -0.0323  0.1195  1.0000  -2.9467   0.0000   0.0000   0.0000   0.2751
   7.700   0.9857   0.01816   0.01025  -0.0317  0.1154  1.0000  -3.0024   0.0000   0.0000   0.0000   0.2741
   7.800   0.9943   0.01830   0.01044  -0.0313  0.1123  1.0000  -3.0665   0.0000   0.0000   0.0000   0.2733
   7.900   1.0024   0.01849   0.01067  -0.0308  0.1088  1.0000  -3.1289   0.0000   0.0000   0.0000   0.2725
   8.000   1.0101   0.01871   0.01091  -0.0303  0.1055  1.0000  -3.1903   0.0000   0.0000   0.0000   0.2716
   8.100   1.0171   0.01900   0.01118  -0.0297  0.1023  1.0000  -3.2494   0.0000   0.0000   0.0000   0.2707
   8.200   1.0231   0.01942   0.01156  -0.0289  0.0988  1.0000  -3.3036   0.0000   0.0000   0.0000   0.2696
   8.300   1.0291   0.02009   0.01220  -0.0282  0.0949  1.0000  -3.3525   0.0000   0.0000   0.0000   0.2687
   8.400   1.0374   0.02021   0.01239  -0.0277  0.0933  1.0000  -3.4173   0.0000   0.0000   0.0000   0.2679
   8.500   1.0454   0.02038   0.01261  -0.0273  0.0910  1.0000  -3.4810   0.0000   0.0000   0.0000   0.2671
   8.600   1.0531   0.02057   0.01285  -0.0267  0.0884  1.0000  -3.5440   0.0000   0.0000   0.0000   0.2663
   8.700   1.0604   0.02078   0.01308  -0.0262  0.0858  1.0000  -3.6067   0.0000   0.0000   0.0000   0.2654
   8.800   1.0674   0.02100   0.01331  -0.0255  0.0832  1.0000  -3.6689   0.0000   0.0000   0.0000   0.2646
   8.900   1.0734   0.02129   0.01359  -0.0248  0.0806  1.0000  -3.7275   0.0000   0.0000   0.0000   0.2636
   9.000   1.0788   0.02183   0.01409  -0.0240  0.0776  1.0000  -3.7846   0.0000   0.0000   0.0000   0.2627
   9.100   1.0860   0.02271   0.01498  -0.0236  0.0744  1.0000  -3.8426   0.0000   0.0000   0.0000   0.2620
   9.200   1.0930   0.02286   0.01519  -0.0229  0.0732  1.0000  -3.9130   0.0000   0.0000   0.0000   0.2611
   9.300   1.0998   0.02307   0.01547  -0.0223  0.0717  1.0000  -3.9817   0.0000   0.0000   0.0000   0.2603
   9.400   1.1065   0.02333   0.01583  -0.0216  0.0698  1.0000  -4.0489   0.0000   0.0000   0.0000   0.2594
   9.500   1.1128   0.02362   0.01616  -0.0208  0.0678  1.0000  -4.1151   0.0000   0.0000   0.0000   0.2585
   9.600   1.1188   0.02392   0.01649  -0.0201  0.0659  1.0000  -4.1806   0.0000   0.0000   0.0000   0.2576
   9.700   1.1245   0.02423   0.01683  -0.0193  0.0641  1.0000  -4.2457   0.0000   0.0000   0.0000   0.2566
   9.800   1.1299   0.02457   0.01718  -0.0185  0.0624  1.0000  -4.3098   0.0000   0.0000   0.0000   0.2557
   9.900   1.1352   0.02504   0.01764  -0.0177  0.0606  1.0000  -4.3713   0.0000   0.0000   0.0000   0.2548
  10.000   1.1417   0.02597   0.01858  -0.0173  0.0581  1.0000  -4.4269   0.0000   0.0000   0.0000   0.2542
  10.100   1.1513   0.02740   0.02009  -0.0175  0.0557  1.0000  -4.4805   0.0000   0.0000   0.0000   0.2541
  10.200   1.1566   0.02757   0.02032  -0.0166  0.0550  1.0000  -4.5536   0.0000   0.0000   0.0000   0.2531
  10.300   1.1618   0.02780   0.02062  -0.0157  0.0541  1.0000  -4.6420   0.0000   0.0000   0.0000   0.2522
  10.400   1.1671   0.02810   0.02097  -0.0148  0.0530  1.0000  -4.7299   0.0000   0.0000   0.0000   0.2513
  10.500   1.1723   0.02844   0.02137  -0.0140  0.0518  1.0000  -4.8176   0.0000   0.0000   0.0000   0.2504
  10.600   1.1774   0.02883   0.02182  -0.0132  0.0507  1.0000  -4.9188   0.0000   0.0000   0.0000   0.2495
  10.700   1.1827   0.02927   0.02232  -0.0124  0.0496  1.0000  -5.0196   0.0000   0.0000   0.0000   0.2487
  10.800   1.1878   0.02975   0.02285  -0.0117  0.0485  1.0000  -5.1200   0.0000   0.0000   0.0000   0.2478
  10.900   1.1926   0.03022   0.02337  -0.0109  0.0476  1.0000  -5.2198   0.0000   0.0000   0.0000   0.2470
  11.000   1.1972   0.03069   0.02389  -0.0101  0.0467  1.0000  -5.3194   0.0000   0.0000   0.0000   0.2461
  11.100   1.2016   0.03117   0.02441  -0.0093  0.0459  1.0000  -5.4186   0.0000   0.0000   0.0000   0.2453
  11.200   1.2058   0.03167   0.02495  -0.0085  0.0451  1.0000  -5.5174   0.0000   0.0000   0.0000   0.2445
  11.300   1.2098   0.03222   0.02553  -0.0077  0.0443  1.0000  -5.6145   0.0000   0.0000   0.0000   0.2436
  11.400   1.2135   0.03285   0.02620  -0.0069  0.0436  1.0000  -5.7085   0.0000   0.0000   0.0000   0.2428
  11.500   1.2171   0.03365   0.02706  -0.0061  0.0428  1.0000  -5.7974   0.0000   0.0000   0.0000   0.2420
  11.600   1.2207   0.03475   0.02823  -0.0055  0.0420  1.0000  -5.8775   0.0000   0.0000   0.0000   0.2413
  11.700   1.2231   0.03641   0.03001  -0.0048  0.0410  1.0000  -5.9347   0.0000   0.0000   0.0000   0.2407
  11.800   1.2215   0.03886   0.03268  -0.0040  0.0402  1.0000  -5.9411   0.0000   0.0000   0.0000   0.2399
  11.900   1.2194   0.04038   0.03433  -0.0028  0.0397  1.0000  -5.9673   0.0000   0.0000   0.0000   0.2388
  12.000   1.2207   0.04073   0.03475  -0.0017  0.0395  1.0000  -6.0498   0.0000   0.0000   0.0000   0.2378
  12.100   1.2218   0.04114   0.03527  -0.0006  0.0392  1.0000  -6.1332   0.0000   0.0000   0.0000   0.2367
  12.200   1.2227   0.04160   0.03581   0.0004  0.0389  1.0000  -6.2118   0.0000   0.0000   0.0000   0.2358
  12.300   1.2233   0.04214   0.03642   0.0014  0.0386  1.0000  -6.2864   0.0000   0.0000   0.0000   0.2348
  12.400   1.2236   0.04275   0.03711   0.0023  0.0382  1.0000  -6.3569   0.0000   0.0000   0.0000   0.2339
  12.500   1.2235   0.04344   0.03787   0.0032  0.0378  1.0000  -6.4228   0.0000   0.0000   0.0000   0.2329
  12.600   1.2228   0.04421   0.03873   0.0041  0.0374  1.0000  -6.4830   0.0000   0.0000   0.0000   0.2320
  12.700   1.2217   0.04506   0.03967   0.0050  0.0371  1.0000  -6.5375   0.0000   0.0000   0.0000   0.2312
  12.800   1.2199   0.04602   0.04071   0.0059  0.0367  1.0000  -6.5843   0.0000   0.0000   0.0000   0.2303
  12.900   1.2175   0.04707   0.04185   0.0067  0.0365  1.0000  -6.6234   0.0000   0.0000   0.0000   0.2294
  13.000   1.2145   0.04818   0.04305   0.0075  0.0362  1.0000  -6.6574   0.0000   0.0000   0.0000   0.2286
  13.100   1.2111   0.04934   0.04431   0.0083  0.0360  1.0000  -6.6869   0.0000   0.0000   0.0000   0.2278
  13.200   1.2073   0.05057   0.04563   0.0089  0.0357  1.0000  -6.7119   0.0000   0.0000   0.0000   0.2271
  13.300   1.2030   0.05186   0.04701   0.0095  0.0355  1.0000  -6.7323   0.0000   0.0000   0.0000   0.2264
  13.400   1.1983   0.05321   0.04845   0.0101  0.0353  1.0000  -6.7475   0.0000   0.0000   0.0000   0.2257
  13.500   1.1931   0.05463   0.04996   0.0105  0.0351  1.0000  -6.7580   0.0000   0.0000   0.0000   0.2252
  13.600   1.1873   0.05614   0.05156   0.0108  0.0350  1.0000  -6.7627   0.0000   0.0000   0.0000   0.2247
  13.700   1.1812   0.05774   0.05324   0.0110  0.0349  1.0000  -6.7622   0.0000   0.0000   0.0000   0.2243
  13.800   1.1746   0.05943   0.05503   0.0111  0.0347  1.0000  -6.7558   0.0000   0.0000   0.0000   0.2240
  13.900   1.1674   0.06124   0.05692   0.0111  0.0346  1.0000  -6.7426   0.0000   0.0000   0.0000   0.2238
  14.000   1.1596   0.06317   0.05894   0.0109  0.0346  1.0000  -6.7220   0.0000   0.0000   0.0000   0.2237
  14.100   1.1513   0.06523   0.06109   0.0105  0.0345  1.0000  -6.6936   0.0000   0.0000   0.0000   0.2237
  14.200   1.1423   0.06746   0.06340   0.0099  0.0345  1.0000  -6.6565   0.0000   0.0000   0.0000   0.2240
  14.300   1.1326   0.06988   0.06590   0.0092  0.0345  1.0000  -6.6096   0.0000   0.0000   0.0000   0.2244
  14.400   1.1222   0.07251   0.06862   0.0081  0.0346  1.0000  -6.5515   0.0000   0.0000   0.0000   0.2251
  14.500   1.1108   0.07540   0.07160   0.0068  0.0346  1.0000  -6.4801   0.0000   0.0000   0.0000   0.2260
  14.600   1.0984   0.07859   0.07488   0.0052  0.0348  1.0000  -6.3930   0.0000   0.0000   0.0000   0.2272
  14.700   1.0848   0.08216   0.07853   0.0032  0.0349  1.0000  -6.2865   0.0000   0.0000   0.0000   0.2288
  14.800   1.0695   0.08622   0.08268   0.0008  0.0352  1.0000  -6.1547   0.0000   0.0000   0.0000   0.2309
  14.900   1.0521   0.09098   0.08753  -0.0023  0.0355  1.0000  -5.9883   0.0000   0.0000   0.0000   0.2336
  15.000   1.0312   0.09682   0.09345  -0.0062  0.0360  1.0000  -5.7664   0.0000   0.0000   0.0000   0.2374


