xflr5 v6.61

 Calculated polar for: SG6041

 1 1 Reynolds number fixed          Mach number fixed         

 xtrf =   1.000 (top)        1.000 (bottom)
 Mach =   0.000     Re =     0.050 e 6     Ncrit =   9.000

  alpha     CL        CD       CDp       Cm    Top Xtr Bot Xtr   Cpmin    Chinge    XCp    
 ------- -------- --------- --------- -------- ------- ------- -------- --------- ---------
 -10.000  -0.4568   0.12539   0.11829  -0.0289  1.0000  0.1937  -1.4359   0.0000   0.0000   0.0000   0.1800
  -9.900  -0.4124   0.11737   0.11015  -0.0251  1.0000  0.2007  -1.3171   0.0000   0.0000   0.0000   0.1815
  -9.800  -0.4063   0.11597   0.10874  -0.0244  1.0000  0.2060  -1.3017   0.0000   0.0000   0.0000   0.1822
  -9.700  -0.4074   0.11516   0.10797  -0.0245  1.0000  0.2106  -1.3078   0.0000   0.0000   0.0000   0.1824
  -9.600  -0.4145   0.11498   0.10784  -0.0250  1.0000  0.2143  -1.3303   0.0000   0.0000   0.0000   0.1823
  -9.500  -0.4264   0.11536   0.10829  -0.0259  1.0000  0.2163  -1.3651   0.0000   0.0000   0.0000   0.1823
  -9.400  -0.4393   0.11578   0.10879  -0.0268  1.0000  0.2173  -1.4016   0.0000   0.0000   0.0000   0.1824
  -9.300  -0.4107   0.11051   0.10346  -0.0245  1.0000  0.2242  -1.3343   0.0000   0.0000   0.0000   0.1833
  -9.200  -0.4024   0.10906   0.10200  -0.0235  1.0000  0.2312  -1.3143   0.0000   0.0000   0.0000   0.1844
  -9.100  -0.4062   0.10851   0.10150  -0.0236  1.0000  0.2364  -1.3257   0.0000   0.0000   0.0000   0.1850
  -9.000  -0.4178   0.10873   0.10178  -0.0241  1.0000  0.2397  -1.3550   0.0000   0.0000   0.0000   0.1857
  -8.900  -0.4321   0.10918   0.10232  -0.0248  1.0000  0.2412  -1.3903   0.0000   0.0000   0.0000   0.1865
  -8.800  -0.4084   0.10487   0.09797  -0.0230  1.0000  0.2486  -1.3417   0.0000   0.0000   0.0000   0.1871
  -8.700  -0.4002   0.10347   0.09651  -0.0220  1.0000  0.2563  -1.3245   0.0000   0.0000   0.0000   0.1884
  -8.600  -0.4072   0.10321   0.09631  -0.0220  1.0000  0.2619  -1.3406   0.0000   0.0000   0.0000   0.1896
  -8.500  -0.4233   0.10379   0.09703  -0.0223  1.0000  0.2649  -1.3742   0.0000   0.0000   0.0000   0.1912
  -8.400  -0.4399   0.10430   0.09764  -0.0226  1.0000  0.2660  -1.4087   0.0000   0.0000   0.0000   0.1930
  -8.300  -0.3994   0.09897   0.09215  -0.0203  1.0000  0.2775  -1.3353   0.0000   0.0000   0.0000   0.1928
  -8.200  -0.4016   0.09832   0.09153  -0.0199  1.0000  0.2841  -1.3409   0.0000   0.0000   0.0000   0.1944
  -8.100  -0.4202   0.09911   0.09243  -0.0198  1.0000  0.2889  -1.3733   0.0000   0.0000   0.0000   0.1971
  -8.000  -0.4412   0.09997   0.09341  -0.0197  1.0000  0.2904  -1.4095   0.0000   0.0000   0.0000   0.2002
  -7.900  -0.4007   0.09471   0.08803  -0.0182  1.0000  0.3002  -1.3491   0.0000   0.0000   0.0000   0.1987
  -7.800  -0.4000   0.09386   0.08721  -0.0175  1.0000  0.3073  -1.3498   0.0000   0.0000   0.0000   0.2005
  -7.700  -0.4226   0.09498   0.08845  -0.0169  1.0000  0.3135  -1.3822   0.0000   0.0000   0.0000   0.2047
  -7.600  -0.4487   0.09621   0.08982  -0.0160  1.0000  0.3150  -1.4192   0.0000   0.0000   0.0000   0.2095
  -7.500  -0.3985   0.09046   0.08391  -0.0152  1.0000  0.3268  -1.3561   0.0000   0.0000   0.0000   0.2062
  -7.400  -0.4060   0.09028   0.08379  -0.0143  1.0000  0.3348  -1.3668   0.0000   0.0000   0.0000   0.2094
  -7.300  -0.4386   0.09214   0.08581  -0.0128  1.0000  0.3389  -1.4054   0.0000   0.0000   0.0000   0.2160
  -7.200  -0.4009   0.08751   0.08108  -0.0126  1.0000  0.3487  -1.3666   0.0000   0.0000   0.0000   0.2134
  -7.100  -0.4016   0.08682   0.08043  -0.0115  1.0000  0.3572  -1.3692   0.0000   0.0000   0.0000   0.2162
  -7.000  -0.4361   0.08884   0.08261  -0.0093  1.0000  0.3631  -1.4037   0.0000   0.0000   0.0000   0.2241
  -6.900  -0.3992   0.08449   0.07816  -0.0094  1.0000  0.3739  -1.3719   0.0000   0.0000   0.0000   0.2215
  -6.800  -0.4043   0.08416   0.07789  -0.0080  1.0000  0.3830  -1.3783   0.0000   0.0000   0.0000   0.2254
  -6.700  -0.4447   0.08657   0.08048  -0.0048  1.0000  0.3880  -1.4125   0.0000   0.0000   0.0000   0.2350
  -6.600  -0.3962   0.08152   0.07529  -0.0058  1.0000  0.4012  -1.3771   0.0000   0.0000   0.0000   0.2304
  -6.500  -0.4242   0.08307   0.07698  -0.0028  1.0000  0.4112  -1.3979   0.0000   0.0000   0.0000   0.2389
  -6.400  -0.3970   0.07969   0.07354  -0.0031  1.0000  0.4220  -1.3825   0.0000   0.0000   0.0000   0.2376
  -6.300  -0.4004   0.07923   0.07312  -0.0015  1.0000  0.4314  -1.3876   0.0000   0.0000   0.0000   0.2416
  -6.200  -0.3996   0.07809   0.07201   0.0000  1.0000  0.4440  -1.3890   0.0000   0.0000   0.0000   0.2456
  -6.100  -0.3926   0.07679   0.07072   0.0008  1.0000  0.4519  -1.3893   0.0000   0.0000   0.0000   0.2476
  -5.200  -0.5079   0.05490   0.04810  -0.0253  1.0000  0.1754  -2.0264   0.0000   0.0000   0.0000   0.1972
  -5.100  -0.4972   0.05196   0.04460  -0.0269  1.0000  0.1423  -2.1648   0.0000   0.0000   0.0000   0.1929
  -5.000  -0.4922   0.04999   0.04258  -0.0264  1.0000  0.1379  -2.1716   0.0000   0.0000   0.0000   0.1932
  -4.800  -0.4773   0.04681   0.03853  -0.0262  1.0000  0.1203  -2.3100   0.0000   0.0000   0.0000   0.1919
  -4.700  -0.4717   0.04495   0.03664  -0.0258  1.0000  0.1185  -2.3155   0.0000   0.0000   0.0000   0.1920
  -4.600  -0.4655   0.04338   0.03498  -0.0254  1.0000  0.1167  -2.3245   0.0000   0.0000   0.0000   0.1921
  -4.500  -0.4588   0.04194   0.03340  -0.0250  1.0000  0.1150  -2.3365   0.0000   0.0000   0.0000   0.1923
  -4.400  -0.4516   0.04056   0.03187  -0.0246  1.0000  0.1134  -2.3508   0.0000   0.0000   0.0000   0.1924
  -4.300  -0.4440   0.03925   0.03037  -0.0241  1.0000  0.1120  -2.3661   0.0000   0.0000   0.0000   0.1924
  -4.200  -0.4361   0.03800   0.02892  -0.0237  1.0000  0.1110  -2.3813   0.0000   0.0000   0.0000   0.1925
  -4.100  -0.4279   0.03682   0.02754  -0.0232  1.0000  0.1103  -2.3950   0.0000   0.0000   0.0000   0.1925
  -4.000  -0.4194   0.03572   0.02624  -0.0227  1.0000  0.1102  -2.4059   0.0000   0.0000   0.0000   0.1926
  -3.900  -0.4109   0.03480   0.02515  -0.0222  1.0000  0.1117  -2.4069   0.0000   0.0000   0.0000   0.1927
  -3.800  -0.4024   0.03403   0.02422  -0.0217  1.0000  0.1148  -2.4028   0.0000   0.0000   0.0000   0.1928
  -3.700  -0.3936   0.03340   0.02336  -0.0211  1.0000  0.1182  -2.4012   0.0000   0.0000   0.0000   0.1930
  -3.600  -0.3844   0.03296   0.02264  -0.0205  1.0000  0.1212  -2.4015   0.0000   0.0000   0.0000   0.1934
  -3.500  -0.3753   0.03165   0.02123  -0.0202  1.0000  0.1237  -2.4027   0.0000   0.0000   0.0000   0.1930
  -3.400  -0.3661   0.03050   0.02005  -0.0198  1.0000  0.1264  -2.3931   0.0000   0.0000   0.0000   0.1927
  -3.300  -0.3568   0.02967   0.01916  -0.0193  1.0000  0.1295  -2.3813   0.0000   0.0000   0.0000   0.1926
  -3.200  -0.3473   0.02894   0.01836  -0.0188  1.0000  0.1335  -2.3702   0.0000   0.0000   0.0000   0.1926
  -3.100  -0.3377   0.02832   0.01763  -0.0182  1.0000  0.1389  -2.3591   0.0000   0.0000   0.0000   0.1928
  -3.000  -0.3282   0.02783   0.01696  -0.0176  1.0000  0.1469  -2.3470   0.0000   0.0000   0.0000   0.1930
  -2.900  -0.3197   0.02696   0.01627  -0.0172  1.0000  0.1572  -2.3124   0.0000   0.0000   0.0000   0.1930
  -2.800  -0.3099   0.02645   0.01564  -0.0165  1.0000  0.1669  -2.2972   0.0000   0.0000   0.0000   0.1934
  -2.700  -0.3002   0.02563   0.01491  -0.0159  1.0000  0.1772  -2.2746   0.0000   0.0000   0.0000   0.1937
  -2.600  -0.2907   0.02519   0.01442  -0.0154  1.0000  0.1947  -2.2448   0.0000   0.0000   0.0000   0.1937
  -2.400  -0.1398   0.02166   0.01386  -0.0269  1.0000  1.0000  -1.8025   0.0000   0.0000   0.0000   0.0516
  -2.300  -0.1405   0.02152   0.01363  -0.0254  1.0000  1.0000  -1.7704   0.0000   0.0000   0.0000   0.0632
  -2.200  -0.1412   0.02139   0.01341  -0.0239  1.0000  1.0000  -1.7378   0.0000   0.0000   0.0000   0.0747
  -2.100  -0.1417   0.02126   0.01320  -0.0225  1.0000  1.0000  -1.7045   0.0000   0.0000   0.0000   0.0860
  -2.000  -0.1422   0.02113   0.01299  -0.0210  1.0000  1.0000  -1.6704   0.0000   0.0000   0.0000   0.0970
  -1.900  -0.1424   0.02101   0.01279  -0.0196  1.0000  1.0000  -1.6353   0.0000   0.0000   0.0000   0.1076
  -1.800  -0.1423   0.02090   0.01260  -0.0182  1.0000  1.0000  -1.5986   0.0000   0.0000   0.0000   0.1176
  -1.700  -0.1418   0.02080   0.01242  -0.0168  1.0000  1.0000  -1.5601   0.0000   0.0000   0.0000   0.1267
  -1.600  -0.1407   0.02072   0.01225  -0.0156  1.0000  1.0000  -1.5193   0.0000   0.0000   0.0000   0.1349
  -1.500  -0.1391   0.02064   0.01208  -0.0144  1.0000  1.0000  -1.4763   0.0000   0.0000   0.0000   0.1423
  -1.400  -0.1369   0.02059   0.01194  -0.0133  1.0000  1.0000  -1.4313   0.0000   0.0000   0.0000   0.1488
  -1.300  -0.1341   0.02055   0.01180  -0.0123  1.0000  1.0000  -1.3839   0.0000   0.0000   0.0000   0.1545
  -1.200  -0.1306   0.02053   0.01169  -0.0114  1.0000  1.0000  -1.3340   0.0000   0.0000   0.0000   0.1592
  -1.100  -0.1266   0.02053   0.01159  -0.0105  1.0000  1.0000  -1.2820   0.0000   0.0000   0.0000   0.1631
  -1.000  -0.1221   0.02054   0.01150  -0.0098  1.0000  1.0000  -1.2280   0.0000   0.0000   0.0000   0.1662
  -0.900  -0.1171   0.02057   0.01140  -0.0091  1.0000  1.0000  -1.1697   0.0000   0.0000   0.0000   0.1687
  -0.800  -0.1117   0.02061   0.01134  -0.0085  1.0000  1.0000  -1.1142   0.0000   0.0000   0.0000   0.1707
  -0.700  -0.1061   0.02066   0.01131  -0.0079  1.0000  1.0000  -1.0596   0.0000   0.0000   0.0000   0.1721
  -0.600  -0.1002   0.02073   0.01128  -0.0074  1.0000  1.0000  -1.0140   0.0000   0.0000   0.0000   0.1731
  -0.500  -0.0941   0.02080   0.01127  -0.0069  1.0000  1.0000  -0.9682   0.0000   0.0000   0.0000   0.1737
  -0.400  -0.0878   0.02089   0.01127  -0.0065  1.0000  1.0000  -0.9223   0.0000   0.0000   0.0000   0.1739
  -0.300  -0.0814   0.02098   0.01128  -0.0060  1.0000  1.0000  -0.8765   0.0000   0.0000   0.0000   0.1737
  -0.200  -0.0749   0.02108   0.01131  -0.0056  1.0000  1.0000  -0.8308   0.0000   0.0000   0.0000   0.1729
  -0.100  -0.0683   0.02119   0.01135  -0.0052  1.0000  1.0000  -0.7854   0.0000   0.0000   0.0000   0.1717
   0.000  -0.0617   0.02131   0.01139  -0.0049  1.0000  1.0000  -0.7402   0.0000   0.0000   0.0000   0.1698
   0.100  -0.0549   0.02143   0.01145  -0.0045  1.0000  1.0000  -0.6954   0.0000   0.0000   0.0000   0.1670
   0.200  -0.0482   0.02157   0.01152  -0.0042  1.0000  1.0000  -0.6509   0.0000   0.0000   0.0000   0.1630
   0.300  -0.0414   0.02171   0.01160  -0.0038  1.0000  1.0000  -0.6069   0.0000   0.0000   0.0000   0.1573
   0.400  -0.0345   0.02186   0.01170  -0.0035  1.0000  1.0000  -0.5633   0.0000   0.0000   0.0000   0.1489
   0.500  -0.0277   0.02202   0.01180  -0.0032  1.0000  1.0000  -0.5202   0.0000   0.0000   0.0000   0.1358
   0.600  -0.0208   0.02219   0.01191  -0.0029  1.0000  1.0000  -0.4790   0.0000   0.0000   0.0000   0.1136
   0.700  -0.0140   0.02236   0.01203  -0.0027  1.0000  1.0000  -0.4510   0.0000   0.0000   0.0000   0.0687
   0.800  -0.0071   0.02254   0.01214  -0.0024  1.0000  1.0000  -0.4275   0.0000   0.0000   0.0000  -0.0639
   0.900  -0.0003   0.02273   0.01228  -0.0022  1.0000  1.0000  -0.4059   0.0000   0.0000   0.0000  -6.3354
   1.000   0.0065   0.02293   0.01244  -0.0019  1.0000  1.0000  -0.3868   0.0000   0.0000   0.0000   0.5072
   1.100   0.0133   0.02314   0.01261  -0.0017  1.0000  1.0000  -0.3678   0.0000   0.0000   0.0000   0.3560
   1.200   0.0201   0.02335   0.01278  -0.0015  1.0000  1.0000  -0.3642   0.0000   0.0000   0.0000   0.3075
   1.300   0.0268   0.02357   0.01297  -0.0013  1.0000  1.0000  -0.3713   0.0000   0.0000   0.0000   0.2839
   1.400   0.0335   0.02380   0.01317  -0.0011  1.0000  1.0000  -0.3791   0.0000   0.0000   0.0000   0.2700
   1.500   0.0402   0.02404   0.01338  -0.0009  1.0000  1.0000  -0.3871   0.0000   0.0000   0.0000   0.2611
   1.600   0.0468   0.02429   0.01360  -0.0007  1.0000  1.0000  -0.3951   0.0000   0.0000   0.0000   0.2549
   1.700   0.0534   0.02455   0.01384  -0.0005  1.0000  1.0000  -0.4029   0.0000   0.0000   0.0000   0.2504
   1.800   0.0599   0.02482   0.01408  -0.0004  1.0000  1.0000  -0.4107   0.0000   0.0000   0.0000   0.2471
   1.900   0.0664   0.02510   0.01434  -0.0002  1.0000  1.0000  -0.4188   0.0000   0.0000   0.0000   0.2445
   2.000   0.0728   0.02539   0.01461  -0.0001  1.0000  1.0000  -0.4277   0.0000   0.0000   0.0000   0.2426
   2.100   0.0791   0.02569   0.01489   0.0001  1.0000  1.0000  -0.4365   0.0000   0.0000   0.0000   0.2411
   2.200   0.0854   0.02600   0.01519   0.0002  1.0000  1.0000  -0.4452   0.0000   0.0000   0.0000   0.2400
   2.300   0.1101   0.02684   0.01601  -0.0032  0.9919  1.0000  -0.4676   0.0000   0.0000   0.0000   0.2723
   2.400   0.1320   0.02747   0.01663  -0.0060  0.9828  1.0000  -0.4891   0.0000   0.0000   0.0000   0.2895
   2.500   0.1574   0.02830   0.01747  -0.0094  0.9742  1.0000  -0.5157   0.0000   0.0000   0.0000   0.3038
   2.600   0.1769   0.02884   0.01801  -0.0116  0.9652  1.0000  -0.5374   0.0000   0.0000   0.0000   0.3101
   2.700   0.1978   0.02939   0.01857  -0.0140  0.9558  1.0000  -0.5607   0.0000   0.0000   0.0000   0.3156
   2.800   0.2249   0.03020   0.01939  -0.0174  0.9474  1.0000  -0.5896   0.0000   0.0000   0.0000   0.3224
   2.900   0.2375   0.03039   0.01961  -0.0182  0.9371  1.0000  -0.6058   0.0000   0.0000   0.0000   0.3219
   3.000   0.2644   0.03103   0.02027  -0.0215  0.9282  1.0000  -0.6360   0.0000   0.0000   0.0000   0.3264
   3.100   0.2793   0.03134   0.02061  -0.0226  0.9183  1.0000  -0.6578   0.0000   0.0000   0.0000   0.3261
   3.200   0.2995   0.03170   0.02103  -0.0245  0.9083  1.0000  -0.6852   0.0000   0.0000   0.0000   0.3271
   3.300   0.3265   0.03221   0.02158  -0.0275  0.8995  1.0000  -0.7202   0.0000   0.0000   0.0000   0.3295
   3.400   0.3364   0.03234   0.02174  -0.0276  0.8882  1.0000  -0.7376   0.0000   0.0000   0.0000   0.3274
   3.500   0.3678   0.03270   0.02216  -0.0310  0.8792  1.0000  -0.7847   0.0000   0.0000   0.0000   0.3298
   3.600   0.3758   0.03286   0.02235  -0.0308  0.8679  1.0000  -0.8032   0.0000   0.0000   0.0000   0.3273
   3.700   0.4017   0.03301   0.02257  -0.0332  0.8578  1.0000  -0.8445   0.0000   0.0000   0.0000   0.3279
   3.800   0.4188   0.03317   0.02278  -0.0342  0.8473  1.0000  -0.8751   0.0000   0.0000   0.0000   0.3269
   3.900   0.4378   0.03321   0.02288  -0.0353  0.8361  1.0000  -0.9085   0.0000   0.0000   0.0000   0.3260
   4.000   0.4658   0.03316   0.02291  -0.0376  0.8263  1.0000  -0.9543   0.0000   0.0000   0.0000   0.3261
   4.100   0.4769   0.03318   0.02299  -0.0375  0.8139  1.0000  -0.9781   0.0000   0.0000   0.0000   0.3239
   4.200   0.5202   0.03264   0.02265  -0.0415  0.8055  1.0000  -1.0518   0.0000   0.0000   0.0000   0.3251
   4.300   0.5183   0.03287   0.02289  -0.0395  0.7913  1.0000  -1.0602   0.0000   0.0000   0.0000   0.3216
   4.400   0.5623   0.03196   0.02215  -0.0432  0.7826  1.0000  -1.1426   0.0000   0.0000   0.0000   0.3222
   4.500   0.5627   0.03216   0.02237  -0.0415  0.7683  1.0000  -1.1552   0.0000   0.0000   0.0000   0.3189
   4.600   0.6100   0.03077   0.02118  -0.0451  0.7594  1.0000  -1.2458   0.0000   0.0000   0.0000   0.3192
   4.700   0.6136   0.03084   0.02128  -0.0436  0.7450  1.0000  -1.2642   0.0000   0.0000   0.0000   0.3162
   4.800   0.6650   0.02894   0.01960  -0.0472  0.7352  1.0000  -1.3649   0.0000   0.0000   0.0000   0.3161
   4.900   0.6698   0.02891   0.01961  -0.0456  0.7196  1.0000  -1.3861   0.0000   0.0000   0.0000   0.3132
   5.000   0.7051   0.02747   0.01839  -0.0471  0.7069  1.0000  -1.4614   0.0000   0.0000   0.0000   0.3119
   5.100   0.7278   0.02651   0.01753  -0.0472  0.6905  1.0000  -1.5217   0.0000   0.0000   0.0000   0.3098
   5.200   0.7438   0.02592   0.01700  -0.0465  0.6726  1.0000  -1.5715   0.0000   0.0000   0.0000   0.3075
   5.300   0.7653   0.02508   0.01620  -0.0464  0.6530  1.0000  -1.6385   0.0000   0.0000   0.0000   0.3055
   5.400   0.7848   0.02440   0.01551  -0.0461  0.6308  1.0000  -1.7059   0.0000   0.0000   0.0000   0.3035
   5.500   0.8006   0.02397   0.01504  -0.0455  0.6065  1.0000  -1.7647   0.0000   0.0000   0.0000   0.3014
   5.600   0.8139   0.02377   0.01475  -0.0446  0.5810  1.0000  -1.8172   0.0000   0.0000   0.0000   0.2994
   5.700   0.8255   0.02373   0.01459  -0.0437  0.5544  1.0000  -1.8657   0.0000   0.0000   0.0000   0.2974
   5.800   0.8360   0.02382   0.01453  -0.0427  0.5278  1.0000  -1.9112   0.0000   0.0000   0.0000   0.2955
   5.900   0.8452   0.02402   0.01456  -0.0417  0.5019  1.0000  -1.9536   0.0000   0.0000   0.0000   0.2936
   6.000   0.8537   0.02433   0.01471  -0.0407  0.4772  1.0000  -1.9946   0.0000   0.0000   0.0000   0.2918
   6.100   0.8617   0.02473   0.01502  -0.0398  0.4541  1.0000  -2.0390   0.0000   0.0000   0.0000   0.2902
   6.200   0.8697   0.02519   0.01536  -0.0389  0.4326  1.0000  -2.0826   0.0000   0.0000   0.0000   0.2887
   6.300   0.8778   0.02568   0.01572  -0.0381  0.4125  1.0000  -2.1264   0.0000   0.0000   0.0000   0.2872
   6.400   0.8865   0.02618   0.01605  -0.0374  0.3937  1.0000  -2.1725   0.0000   0.0000   0.0000   0.2859
   6.500   0.8954   0.02667   0.01637  -0.0368  0.3757  1.0000  -2.2200   0.0000   0.0000   0.0000   0.2847
   6.600   0.9009   0.02718   0.01690  -0.0358  0.3594  1.0000  -2.2552   0.0000   0.0000   0.0000   0.2832
   6.700   0.9096   0.02776   0.01736  -0.0352  0.3444  1.0000  -2.3003   0.0000   0.0000   0.0000   0.2821
   6.800   0.9189   0.02834   0.01786  -0.0348  0.3306  1.0000  -2.3458   0.0000   0.0000   0.0000   0.2811
   6.900   0.9275   0.02904   0.01858  -0.0343  0.3185  1.0000  -2.3856   0.0000   0.0000   0.0000   0.2802
   7.000   0.9375   0.02967   0.01912  -0.0340  0.3067  1.0000  -2.4325   0.0000   0.0000   0.0000   0.2793
   7.100   0.9460   0.03042   0.01988  -0.0335  0.2961  1.0000  -2.4718   0.0000   0.0000   0.0000   0.2784
   7.200   0.9538   0.03099   0.02046  -0.0329  0.2855  1.0000  -2.5128   0.0000   0.0000   0.0000   0.2774
   7.300   0.9636   0.03173   0.02109  -0.0327  0.2755  1.0000  -2.5601   0.0000   0.0000   0.0000   0.2767
   7.400   0.9690   0.03228   0.02176  -0.0317  0.2659  1.0000  -2.5921   0.0000   0.0000   0.0000   0.2754
   7.500   0.9805   0.03297   0.02223  -0.0318  0.2563  1.0000  -2.6487   0.0000   0.0000   0.0000   0.2749
   7.600   0.9867   0.03376   0.02319  -0.0310  0.2494  1.0000  -2.6766   0.0000   0.0000   0.0000   0.2739
   7.700   0.9939   0.03452   0.02409  -0.0303  0.2425  1.0000  -2.7163   0.0000   0.0000   0.0000   0.2729
   7.800   1.0038   0.03530   0.02489  -0.0301  0.2360  1.0000  -2.7698   0.0000   0.0000   0.0000   0.2723
   7.900   1.0150   0.03650   0.02601  -0.0302  0.2302  1.0000  -2.8233   0.0000   0.0000   0.0000   0.2719
   8.000   1.0197   0.03738   0.02716  -0.0292  0.2256  1.0000  -2.8480   0.0000   0.0000   0.0000   0.2707
   8.100   1.0259   0.03827   0.02821  -0.0284  0.2205  1.0000  -2.8815   0.0000   0.0000   0.0000   0.2697
   8.200   1.0335   0.03902   0.02899  -0.0279  0.2148  1.0000  -2.9266   0.0000   0.0000   0.0000   0.2689
   8.300   1.0462   0.04025   0.02996  -0.0283  0.2080  1.0000  -2.9964   0.0000   0.0000   0.0000   0.2688
   8.400   1.0471   0.04094   0.03097  -0.0268  0.2040  1.0000  -3.0102   0.0000   0.0000   0.0000   0.2673
   8.500   1.0502   0.04174   0.03196  -0.0257  0.1990  1.0000  -3.0347   0.0000   0.0000   0.0000   0.2661
   8.600   1.0565   0.04251   0.03281  -0.0251  0.1938  1.0000  -3.0738   0.0000   0.0000   0.0000   0.2652
   8.700   1.0642   0.04346   0.03379  -0.0246  0.1899  1.0000  -3.1161   0.0000   0.0000   0.0000   0.2645
   8.800   1.0740   0.04480   0.03506  -0.0246  0.1861  1.0000  -3.1666   0.0000   0.0000   0.0000   0.2642
   8.900   1.0779   0.04640   0.03677  -0.0239  0.1837  1.0000  -3.1847   0.0000   0.0000   0.0000   0.2633
   9.000   1.0779   0.04757   0.03822  -0.0225  0.1819  1.0000  -3.1873   0.0000   0.0000   0.0000   0.2620
   9.100   1.0775   0.04882   0.03971  -0.0211  0.1799  1.0000  -3.1893   0.0000   0.0000   0.0000   0.2607
   9.200   1.0770   0.05008   0.04119  -0.0199  0.1776  1.0000  -3.1945   0.0000   0.0000   0.0000   0.2594
   9.300   1.0771   0.05128   0.04256  -0.0187  0.1749  1.0000  -3.2083   0.0000   0.0000   0.0000   0.2582
   9.400   1.0795   0.05227   0.04364  -0.0178  0.1713  1.0000  -3.2377   0.0000   0.0000   0.0000   0.2572
   9.500   1.0957   0.05264   0.04378  -0.0182  0.1645  1.0000  -3.3456   0.0000   0.0000   0.0000   0.2572
   9.600   1.1004   0.05460   0.04567  -0.0180  0.1611  1.0000  -3.3861   0.0000   0.0000   0.0000   0.2568
   9.700   1.0961   0.05580   0.04712  -0.0164  0.1600  1.0000  -3.3787   0.0000   0.0000   0.0000   0.2554
   9.800   1.0918   0.05721   0.04875  -0.0149  0.1590  1.0000  -3.3700   0.0000   0.0000   0.0000   0.2540
   9.900   1.0873   0.05878   0.05049  -0.0136  0.1583  1.0000  -3.3595   0.0000   0.0000   0.0000   0.2528
  10.000   1.0820   0.06039   0.05228  -0.0123  0.1577  1.0000  -3.3465   0.0000   0.0000   0.0000   0.2515
  10.100   1.0760   0.06205   0.05409  -0.0110  0.1573  1.0000  -3.3309   0.0000   0.0000   0.0000   0.2503
  10.200   1.0692   0.06375   0.05592  -0.0097  0.1570  1.0000  -3.3127   0.0000   0.0000   0.0000   0.2491
  10.300   1.0615   0.06548   0.05777  -0.0085  0.1569  1.0000  -3.2919   0.0000   0.0000   0.0000   0.2479
  10.400   1.0531   0.06724   0.05964  -0.0073  0.1569  1.0000  -3.2684   0.0000   0.0000   0.0000   0.2468
  10.500   1.0439   0.06903   0.06152  -0.0062  0.1570  1.0000  -3.2425   0.0000   0.0000   0.0000   0.2457
  10.600   1.0337   0.07076   0.06332  -0.0049  0.1572  1.0000  -3.2147   0.0000   0.0000   0.0000   0.2445
  10.700   1.0230   0.07253   0.06515  -0.0038  0.1574  1.0000  -3.1851   0.0000   0.0000   0.0000   0.2433
  10.800   1.0121   0.07440   0.06707  -0.0029  0.1578  1.0000  -3.1537   0.0000   0.0000   0.0000   0.2424
  10.900   1.0010   0.07640   0.06910  -0.0022  0.1582  1.0000  -3.1205   0.0000   0.0000   0.0000   0.2416
  11.000   0.9900   0.07852   0.07127  -0.0018  0.1586  1.0000  -3.0859   0.0000   0.0000   0.0000   0.2411
  11.100   0.9793   0.08079   0.07356  -0.0016  0.1590  1.0000  -3.0503   0.0000   0.0000   0.0000   0.2409
  11.200   0.9690   0.08319   0.07599  -0.0017  0.1595  1.0000  -3.0144   0.0000   0.0000   0.0000   0.2409
  11.300   0.9595   0.08574   0.07856  -0.0020  0.1600  1.0000  -2.9790   0.0000   0.0000   0.0000   0.2411
  11.400   0.9511   0.08841   0.08124  -0.0025  0.1604  1.0000  -2.9455   0.0000   0.0000   0.0000   0.2416
  11.500   0.9441   0.09118   0.08403  -0.0031  0.1609  1.0000  -2.9152   0.0000   0.0000   0.0000   0.2421
  11.600   0.9390   0.09405   0.08690  -0.0038  0.1613  1.0000  -2.8902   0.0000   0.0000   0.0000   0.2428
  11.800   0.8406   0.11317   0.10581  -0.0188  0.1833  1.0000  -2.2987   0.0000   0.0000   0.0000   0.2612
  11.900   0.8398   0.11587   0.10851  -0.0196  0.1837  1.0000  -2.2831   0.0000   0.0000   0.0000   0.2621
  12.000   0.8454   0.11820   0.11088  -0.0196  0.1843  1.0000  -2.3014   0.0000   0.0000   0.0000   0.2619
  12.200   0.7612   0.14733   0.13966  -0.0446  0.3261  1.0000  -1.6176   0.0000   0.0000   0.0000   0.2981
  12.300   0.7461   0.14739   0.13966  -0.0456  0.3252  1.0000  -1.5732   0.0000   0.0000   0.0000   0.3004
  12.400   0.7296   0.14703   0.13924  -0.0465  0.3226  1.0000  -1.5259   0.0000   0.0000   0.0000   0.3028
  12.500   0.7217   0.14732   0.13951  -0.0470  0.3171  1.0000  -1.5034   0.0000   0.0000   0.0000   0.3040
  12.600   0.7308   0.14884   0.14107  -0.0467  0.3090  1.0000  -1.5298   0.0000   0.0000   0.0000   0.3027
  12.700   0.7609   0.15394   0.14628  -0.0456  0.3017  1.0000  -1.6098   0.0000   0.0000   0.0000   0.2988
  12.800   0.7445   0.15354   0.14582  -0.0467  0.2999  1.0000  -1.5607   0.0000   0.0000   0.0000   0.3014
  12.900   0.7331   0.15344   0.14568  -0.0476  0.2956  1.0000  -1.5263   0.0000   0.0000   0.0000   0.3034
  13.000   0.7330   0.15444   0.14669  -0.0479  0.2899  1.0000  -1.5236   0.0000   0.0000   0.0000   0.3037
  13.100   0.7393   0.15618   0.14846  -0.0479  0.2858  1.0000  -1.5373   0.0000   0.0000   0.0000   0.3031
  13.200   0.7534   0.15897   0.15131  -0.0476  0.2823  1.0000  -1.5712   0.0000   0.0000   0.0000   0.3015
  13.300   0.7953   0.16726   0.15977  -0.0462  0.2788  1.0000  -1.6949   0.0000   0.0000   0.0000   0.2964
  13.400   0.7791   0.16667   0.15910  -0.0476  0.2782  1.0000  -1.6393   0.0000   0.0000   0.0000   0.2992
  13.500   0.7608   0.16547   0.15784  -0.0490  0.2768  1.0000  -1.5779   0.0000   0.0000   0.0000   0.3024
  13.600   0.7469   0.16458   0.15689  -0.0501  0.2731  1.0000  -1.5319   0.0000   0.0000   0.0000   0.3049
  13.700   0.7447   0.16539   0.15770  -0.0507  0.2688  1.0000  -1.5231   0.0000   0.0000   0.0000   0.3058
  13.800   0.7475   0.16681   0.15913  -0.0511  0.2649  1.0000  -1.5309   0.0000   0.0000   0.0000   0.3058
  13.900   0.7542   0.16869   0.16105  -0.0511  0.2614  1.0000  -1.5522   0.0000   0.0000   0.0000   0.3052
  14.000   0.7681   0.17180   0.16422  -0.0507  0.2582  1.0000  -1.5969   0.0000   0.0000   0.0000   0.3034
  14.100   0.7980   0.17942   0.17200  -0.0497  0.2547  1.0000  -1.6874   0.0000   0.0000   0.0000   0.2997
  14.200   0.7850   0.17871   0.17124  -0.0511  0.2541  1.0000  -1.6401   0.0000   0.0000   0.0000   0.3023
  14.300   0.7714   0.17752   0.17000  -0.0525  0.2527  1.0000  -1.5919   0.0000   0.0000   0.0000   0.3050
  14.400   0.7617   0.17685   0.16929  -0.0537  0.2494  1.0000  -1.5558   0.0000   0.0000   0.0000   0.3073
  14.500   0.7603   0.17755   0.16999  -0.0544  0.2448  1.0000  -1.5478   0.0000   0.0000   0.0000   0.3082
  14.600   0.7650   0.17899   0.17145  -0.0545  0.2397  1.0000  -1.5628   0.0000   0.0000   0.0000   0.3078
  14.800   0.8047   0.18943   0.18204  -0.0527  0.2308  1.0000  -1.6905   0.0000   0.0000   0.0000   0.3021
  14.900   0.7914   0.18799   0.18054  -0.0543  0.2299  1.0000  -1.6404   0.0000   0.0000   0.0000   0.3049
  15.000   0.7799   0.18664   0.17915  -0.0558  0.2278  1.0000  -1.5956   0.0000   0.0000   0.0000   0.3077


