xflr5 v6.61

 Calculated polar for: SG6041

 1 1 Reynolds number fixed          Mach number fixed         

 xtrf =   1.000 (top)        1.000 (bottom)
 Mach =   0.000     Re =     0.400 e 6     Ncrit =   9.000

  alpha     CL        CD       CDp       Cm    Top Xtr Bot Xtr   Cpmin    Chinge    XCp    
 ------- -------- --------- --------- -------- ------- ------- -------- --------- ---------
 -10.000  -0.4195   0.10048   0.09783  -0.0345  1.0000  0.0228  -2.0238   0.0000   0.0000   0.0000   0.1593
  -9.900  -0.4199   0.09896   0.09633  -0.0352  1.0000  0.0233  -2.0508   0.0000   0.0000   0.0000   0.1578
  -9.800  -0.4203   0.09744   0.09482  -0.0361  1.0000  0.0238  -2.0847   0.0000   0.0000   0.0000   0.1560
  -9.700  -0.4204   0.09599   0.09338  -0.0371  1.0000  0.0243  -2.1216   0.0000   0.0000   0.0000   0.1538
  -9.600  -0.4194   0.09480   0.09220  -0.0379  1.0000  0.0246  -2.1392   0.0000   0.0000   0.0000   0.1517
  -9.500  -0.4190   0.09355   0.09097  -0.0385  1.0000  0.0248  -2.1527   0.0000   0.0000   0.0000   0.1502
  -9.400  -0.4192   0.09220   0.08963  -0.0391  1.0000  0.0249  -2.1679   0.0000   0.0000   0.0000   0.1490
  -9.300  -0.4200   0.09079   0.08823  -0.0397  1.0000  0.0250  -2.1847   0.0000   0.0000   0.0000   0.1479
  -9.200  -0.4211   0.08933   0.08679  -0.0402  1.0000  0.0250  -2.2031   0.0000   0.0000   0.0000   0.1470
  -9.100  -0.4226   0.08785   0.08532  -0.0407  1.0000  0.0251  -2.2232   0.0000   0.0000   0.0000   0.1463
  -9.000  -0.4246   0.08634   0.08383  -0.0412  1.0000  0.0251  -2.2451   0.0000   0.0000   0.0000   0.1456
  -8.900  -0.4270   0.08481   0.08232  -0.0417  1.0000  0.0251  -2.2693   0.0000   0.0000   0.0000   0.1451
  -8.800  -0.4299   0.08325   0.08078  -0.0423  1.0000  0.0251  -2.2962   0.0000   0.0000   0.0000   0.1447
  -8.700  -0.4336   0.08166   0.07921  -0.0428  1.0000  0.0251  -2.3267   0.0000   0.0000   0.0000   0.1444
  -8.600  -0.4384   0.08004   0.07761  -0.0434  1.0000  0.0252  -2.3624   0.0000   0.0000   0.0000   0.1443
  -8.500  -0.4447   0.07839   0.07598  -0.0441  1.0000  0.0252  -2.4053   0.0000   0.0000   0.0000   0.1443
  -8.400  -0.4529   0.07694   0.07454  -0.0445  1.0000  0.0251  -2.4500   0.0000   0.0000   0.0000   0.1457
  -8.300  -0.4628   0.07593   0.07354  -0.0439  1.0000  0.0251  -2.4877   0.0000   0.0000   0.0000   0.1493
  -8.200  -0.4740   0.07524   0.07286  -0.0425  1.0000  0.0251  -2.5213   0.0000   0.0000   0.0000   0.1545
  -8.100  -0.4861   0.07475   0.07239  -0.0407  1.0000  0.0251  -2.5516   0.0000   0.0000   0.0000   0.1606
  -8.000  -0.4975   0.07425   0.07189  -0.0388  1.0000  0.0251  -2.5798   0.0000   0.0000   0.0000   0.1666
  -7.900  -0.5062   0.07340   0.07104  -0.0375  1.0000  0.0251  -2.6073   0.0000   0.0000   0.0000   0.1707
  -7.800  -0.5030   0.07097   0.06855  -0.0400  0.9986  0.0251  -2.6385   0.0000   0.0000   0.0000   0.1653
  -7.700  -0.4976   0.06837   0.06589  -0.0428  0.9967  0.0252  -2.6654   0.0000   0.0000   0.0000   0.1588
  -7.600  -0.4928   0.06602   0.06346  -0.0452  0.9947  0.0252  -2.6872   0.0000   0.0000   0.0000   0.1532
  -7.500  -0.4876   0.06375   0.06111  -0.0473  0.9930  0.0252  -2.7035   0.0000   0.0000   0.0000   0.1479
  -7.400  -0.4816   0.06153   0.05880  -0.0493  0.9916  0.0253  -2.7144   0.0000   0.0000   0.0000   0.1425
  -7.300  -0.4756   0.05943   0.05660  -0.0510  0.9903  0.0253  -2.7204   0.0000   0.0000   0.0000   0.1375
  -7.200  -0.4953   0.05164   0.04863  -0.0530  0.9856  0.0261  -3.0169   0.0000   0.0000   0.0000   0.1378
  -7.100  -0.4927   0.04924   0.04617  -0.0539  0.9833  0.0266  -3.0104   0.0000   0.0000   0.0000   0.1354
  -7.000  -0.4869   0.04754   0.04441  -0.0547  0.9815  0.0269  -2.9694   0.0000   0.0000   0.0000   0.1325
  -6.900  -0.4788   0.04632   0.04317  -0.0554  0.9801  0.0272  -2.8978   0.0000   0.0000   0.0000   0.1292
  -6.800  -0.4703   0.04519   0.04200  -0.0562  0.9788  0.0275  -2.8244   0.0000   0.0000   0.0000   0.1256
  -6.700  -0.4613   0.04406   0.04083  -0.0569  0.9775  0.0279  -2.7529   0.0000   0.0000   0.0000   0.1217
  -6.600  -0.4518   0.04292   0.03963  -0.0577  0.9764  0.0283  -2.6837   0.0000   0.0000   0.0000   0.1173
  -6.500  -0.4419   0.04175   0.03840  -0.0586  0.9753  0.0287  -2.6175   0.0000   0.0000   0.0000   0.1124
  -6.400  -0.4315   0.04055   0.03713  -0.0595  0.9744  0.0292  -2.5621   0.0000   0.0000   0.0000   0.1072
  -6.300  -0.4207   0.03932   0.03583  -0.0604  0.9735  0.0298  -2.5241   0.0000   0.0000   0.0000   0.1014
  -6.200  -0.4096   0.03807   0.03449  -0.0613  0.9727  0.0304  -2.4908   0.0000   0.0000   0.0000   0.0953
  -6.100  -0.3980   0.03683   0.03314  -0.0622  0.9720  0.0311  -2.4615   0.0000   0.0000   0.0000   0.0887
  -6.000  -0.3907   0.03579   0.03201  -0.0620  0.9702  0.0318  -2.4419   0.0000   0.0000   0.0000   0.0863
  -5.900  -0.3873   0.03494   0.03109  -0.0609  0.9669  0.0324  -2.4291   0.0000   0.0000   0.0000   0.0879
  -5.600  -0.3727   0.02300   0.01764  -0.0568  0.9591  0.0177  -3.3265   0.0000   0.0000   0.0000   0.0919
  -5.500  -0.3592   0.02292   0.01751  -0.0571  0.9581  0.0173  -3.2497   0.0000   0.0000   0.0000   0.0852
  -5.400  -0.3456   0.02283   0.01739  -0.0576  0.9571  0.0170  -3.1593   0.0000   0.0000   0.0000   0.0777
  -5.300  -0.3362   0.02067   0.01505  -0.0575  0.9561  0.0161  -3.2279   0.0000   0.0000   0.0000   0.0731
  -5.200  -0.3246   0.01947   0.01370  -0.0577  0.9553  0.0158  -3.2307   0.0000   0.0000   0.0000   0.0663
  -5.100  -0.3123   0.01850   0.01260  -0.0579  0.9545  0.0155  -3.2181   0.0000   0.0000   0.0000   0.0584
  -5.000  -0.2995   0.01765   0.01161  -0.0582  0.9538  0.0153  -3.1961   0.0000   0.0000   0.0000   0.0493
  -4.900  -0.2863   0.01691   0.01078  -0.0586  0.9532  0.0152  -3.1654   0.0000   0.0000   0.0000   0.0390
  -4.800  -0.2729   0.01626   0.01005  -0.0590  0.9526  0.0152  -3.1283   0.0000   0.0000   0.0000   0.0273
  -4.700  -0.2593   0.01568   0.00939  -0.0595  0.9520  0.0152  -3.0857   0.0000   0.0000   0.0000   0.0140
  -4.600  -0.2456   0.01515   0.00881  -0.0600  0.9515  0.0153  -3.0383   0.0000   0.0000   0.0000  -0.0010
  -4.500  -0.2317   0.01468   0.00828  -0.0605  0.9510  0.0154  -2.9870   0.0000   0.0000   0.0000  -0.0182
  -4.400  -0.2177   0.01426   0.00781  -0.0611  0.9505  0.0157  -2.9330   0.0000   0.0000   0.0000  -0.0379
  -4.300  -0.2035   0.01388   0.00739  -0.0618  0.9500  0.0160  -2.8762   0.0000   0.0000   0.0000  -0.0609
  -4.200  -0.1889   0.01355   0.00703  -0.0625  0.9495  0.0165  -2.8153   0.0000   0.0000   0.0000  -0.0882
  -4.100  -0.1745   0.01319   0.00663  -0.0631  0.9490  0.0171  -2.7650   0.0000   0.0000   0.0000  -0.1198
  -4.000  -0.1803   0.01292   0.00631  -0.0596  0.9428  0.0177  -2.7851   0.0000   0.0000   0.0000  -0.0880
  -3.900  -0.1709   0.01251   0.00589  -0.0592  0.9406  0.0200  -2.7649   0.0000   0.0000   0.0000  -0.1041
  -3.800  -0.1589   0.01231   0.00570  -0.0594  0.9391  0.0229  -2.7084   0.0000   0.0000   0.0000  -0.1317
  -3.700  -0.1469   0.01194   0.00533  -0.0595  0.9377  0.0294  -2.6880   0.0000   0.0000   0.0000  -0.1635
  -3.600  -0.1334   0.01177   0.00519  -0.0600  0.9366  0.0370  -2.6080   0.0000   0.0000   0.0000  -0.2085
  -3.500  -0.1204   0.01147   0.00497  -0.0604  0.9354  0.0496  -2.5283   0.0000   0.0000   0.0000  -0.2610
  -3.400  -0.1066   0.01135   0.00484  -0.0610  0.9344  0.0578  -2.4214   0.0000   0.0000   0.0000  -0.3320
  -3.300  -0.0934   0.01115   0.00472  -0.0615  0.9334  0.0706  -2.3150   0.0000   0.0000   0.0000  -0.4194
  -3.200  -0.0796   0.01103   0.00460  -0.0621  0.9324  0.0798  -2.2062   0.0000   0.0000   0.0000  -0.5421
  -3.100  -0.0662   0.01081   0.00445  -0.0626  0.9315  0.0937  -2.1025   0.0000   0.0000   0.0000  -0.7094
  -3.000  -0.0525   0.01060   0.00430  -0.0631  0.9305  0.1095  -1.9988   0.0000   0.0000   0.0000  -0.9692
  -2.900  -0.0392   0.01036   0.00417  -0.0637  0.9296  0.1351  -1.8965   0.0000   0.0000   0.0000  -1.3990
  -2.800  -0.0264   0.01003   0.00403  -0.0642  0.9286  0.1835  -1.7975   0.0000   0.0000   0.0000  -2.2127
  -2.700  -0.0148   0.00957   0.00389  -0.0646  0.9275  0.2687  -1.7042   0.0000   0.0000   0.0000  -4.1769
  -2.600  -0.0045   0.00901   0.00376  -0.0648  0.9261  0.3844  -1.6172   0.0000   0.0000   0.0000  -14.3247
  -2.500  -0.0003   0.00859   0.00371  -0.0636  0.9231  0.4830  -1.5550   0.0000   0.0000   0.0000  -197.1373
  -2.400   0.0035   0.00827   0.00372  -0.0621  0.9196  0.5692  -1.4938   0.0000   0.0000   0.0000  18.3219
  -2.300   0.0110   0.00807   0.00374  -0.0612  0.9169  0.6328  -1.4175   0.0000   0.0000   0.0000   5.8580
  -2.200   0.0209   0.00795   0.00373  -0.0608  0.9147  0.6722  -1.3324   0.0000   0.0000   0.0000   3.1851
  -2.100   0.0323   0.00787   0.00369  -0.0607  0.9128  0.6979  -1.2412   0.0000   0.0000   0.0000   2.1477
  -2.000   0.0443   0.00780   0.00365  -0.0607  0.9110  0.7155  -1.1517   0.0000   0.0000   0.0000   1.6319
  -1.900   0.0571   0.00775   0.00359  -0.0609  0.9094  0.7298  -1.0614   0.0000   0.0000   0.0000   1.3261
  -1.800   0.0695   0.00768   0.00355  -0.0610  0.9078  0.7416  -0.9735   0.0000   0.0000   0.0000   1.1339
  -1.700   0.0825   0.00764   0.00349  -0.0612  0.9062  0.7524  -0.8858   0.0000   0.0000   0.0000   0.9974
  -1.600   0.0951   0.00759   0.00345  -0.0613  0.9047  0.7611  -0.8007   0.0000   0.0000   0.0000   0.8990
  -1.500   0.1077   0.00755   0.00341  -0.0615  0.9031  0.7701  -0.7178   0.0000   0.0000   0.0000   0.8240
  -1.400   0.1194   0.00755   0.00339  -0.0615  0.9010  0.7792  -0.6520   0.0000   0.0000   0.0000   0.7673
  -1.300   0.1272   0.00752   0.00340  -0.0606  0.8978  0.7871  -0.6020   0.0000   0.0000   0.0000   0.7286
  -1.200   0.1365   0.00751   0.00339  -0.0600  0.8947  0.7955  -0.5489   0.0000   0.0000   0.0000   0.6918
  -1.000   0.1577   0.00744   0.00333  -0.0595  0.8891  0.8106  -0.4467   0.0000   0.0000   0.0000   0.6282
  -0.900   0.1690   0.00740   0.00328  -0.0593  0.8866  0.8180  -0.4137   0.0000   0.0000   0.0000   0.6017
  -0.800   0.1807   0.00737   0.00323  -0.0592  0.8842  0.8249  -0.4015   0.0000   0.0000   0.0000   0.5784
  -0.700   0.1922   0.00732   0.00319  -0.0591  0.8819  0.8318  -0.4113   0.0000   0.0000   0.0000   0.5578
  -0.600   0.2034   0.00729   0.00317  -0.0588  0.8797  0.8404  -0.4211   0.0000   0.0000   0.0000   0.5393
  -0.500   0.2143   0.00730   0.00317  -0.0586  0.8771  0.8505  -0.4317   0.0000   0.0000   0.0000   0.5232
  -0.400   0.2217   0.00728   0.00320  -0.0575  0.8736  0.8591  -0.4410   0.0000   0.0000   0.0000   0.5092
  -0.300   0.2301   0.00727   0.00321  -0.0567  0.8700  0.8678  -0.4509   0.0000   0.0000   0.0000   0.4959
  -0.200   0.2396   0.00726   0.00318  -0.0561  0.8664  0.8752  -0.4615   0.0000   0.0000   0.0000   0.4838
  -0.100   0.2497   0.00720   0.00315  -0.0557  0.8631  0.8812  -0.4726   0.0000   0.0000   0.0000   0.4723
   0.000   0.2602   0.00717   0.00311  -0.0553  0.8600  0.8868  -0.4850   0.0000   0.0000   0.0000   0.4616
   0.100   0.2712   0.00714   0.00307  -0.0550  0.8571  0.8922  -0.4978   0.0000   0.0000   0.0000   0.4520
   0.200   0.2828   0.00713   0.00303  -0.0550  0.8542  0.8970  -0.5112   0.0000   0.0000   0.0000   0.4433
   0.300   0.2921   0.00711   0.00301  -0.0545  0.8505  0.9014  -0.5230   0.0000   0.0000   0.0000   0.4353
   0.400   0.3017   0.00708   0.00299  -0.0540  0.8464  0.9054  -0.5365   0.0000   0.0000   0.0000   0.4277
   0.500   0.3118   0.00705   0.00297  -0.0536  0.8423  0.9093  -0.5505   0.0000   0.0000   0.0000   0.4206
   0.600   0.3224   0.00702   0.00293  -0.0534  0.8383  0.9132  -0.5653   0.0000   0.0000   0.0000   0.4140
   0.700   0.3335   0.00699   0.00287  -0.0532  0.8344  0.9171  -0.5822   0.0000   0.0000   0.0000   0.4079
   0.800   0.3453   0.00697   0.00282  -0.0532  0.8307  0.9207  -0.5996   0.0000   0.0000   0.0000   0.4024
   0.900   0.3551   0.00695   0.00280  -0.0528  0.8262  0.9248  -0.6155   0.0000   0.0000   0.0000   0.3970
   1.000   0.3659   0.00692   0.00279  -0.0526  0.8212  0.9283  -0.6323   0.0000   0.0000   0.0000   0.3920
   1.100   0.3773   0.00690   0.00277  -0.0526  0.8164  0.9318  -0.6497   0.0000   0.0000   0.0000   0.3874
   1.200   0.3894   0.00688   0.00273  -0.0526  0.8118  0.9353  -0.6677   0.0000   0.0000   0.0000   0.3832
   1.300   0.4017   0.00687   0.00269  -0.0528  0.8075  0.9388  -0.6861   0.0000   0.0000   0.0000   0.3793
   1.400   0.4128   0.00687   0.00268  -0.0527  0.8027  0.9429  -0.7034   0.0000   0.0000   0.0000   0.3754
   1.500   0.4223   0.00686   0.00268  -0.0523  0.7967  0.9478  -0.7195   0.0000   0.0000   0.0000   0.3715
   1.600   0.4362   0.00684   0.00267  -0.0528  0.7906  0.9504  -0.7407   0.0000   0.0000   0.0000   0.3687
   1.700   0.4508   0.00684   0.00264  -0.0534  0.7848  0.9528  -0.7645   0.0000   0.0000   0.0000   0.3661
   1.800   0.4650   0.00684   0.00262  -0.0540  0.7786  0.9554  -0.7881   0.0000   0.0000   0.0000   0.3636
   1.900   0.4785   0.00684   0.00262  -0.0545  0.7705  0.9583  -0.8118   0.0000   0.0000   0.0000   0.3612
   2.000   0.4920   0.00685   0.00259  -0.0549  0.7624  0.9613  -0.8391   0.0000   0.0000   0.0000   0.3589
   2.100   0.5053   0.00686   0.00257  -0.0553  0.7546  0.9645  -0.8663   0.0000   0.0000   0.0000   0.3567
   2.200   0.5176   0.00687   0.00257  -0.0555  0.7454  0.9682  -0.8926   0.0000   0.0000   0.0000   0.3544
   2.300   0.5304   0.00690   0.00255  -0.0557  0.7364  0.9715  -0.9195   0.0000   0.0000   0.0000   0.3523
   2.400   0.5460   0.00692   0.00256  -0.0567  0.7272  0.9731  -0.9499   0.0000   0.0000   0.0000   0.3509
   2.500   0.5614   0.00696   0.00256  -0.0576  0.7172  0.9748  -0.9803   0.0000   0.0000   0.0000   0.3496
   2.600   0.5767   0.00700   0.00255  -0.0585  0.7072  0.9766  -1.0108   0.0000   0.0000   0.0000   0.3483
   2.700   0.5916   0.00704   0.00257  -0.0593  0.6950  0.9787  -1.0429   0.0000   0.0000   0.0000   0.3471
   2.800   0.6059   0.00710   0.00259  -0.0600  0.6819  0.9811  -1.0779   0.0000   0.0000   0.0000   0.3458
   2.900   0.6196   0.00717   0.00260  -0.0605  0.6661  0.9838  -1.1125   0.0000   0.0000   0.0000   0.3444
   3.000   0.6330   0.00725   0.00262  -0.0611  0.6495  0.9868  -1.1467   0.0000   0.0000   0.0000   0.3430
   3.100   0.6457   0.00736   0.00264  -0.0614  0.6324  0.9899  -1.1803   0.0000   0.0000   0.0000   0.3416
   3.200   0.6599   0.00747   0.00266  -0.0621  0.6132  0.9922  -1.2161   0.0000   0.0000   0.0000   0.3406
   3.300   0.6742   0.00759   0.00269  -0.0629  0.5921  0.9948  -1.2525   0.0000   0.0000   0.0000   0.3396
   3.400   0.6883   0.00773   0.00273  -0.0637  0.5691  0.9975  -1.2887   0.0000   0.0000   0.0000   0.3387
   3.500   0.7023   0.00789   0.00278  -0.0644  0.5452  0.9999  -1.3251   0.0000   0.0000   0.0000   0.3379
   3.600   0.7062   0.00799   0.00280  -0.0631  0.5284  1.0000  -1.3464   0.0000   0.0000   0.0000   0.3354
   3.700   0.7096   0.00810   0.00284  -0.0616  0.5128  1.0000  -1.3671   0.0000   0.0000   0.0000   0.3328
   3.800   0.7137   0.00822   0.00288  -0.0603  0.4966  1.0000  -1.3890   0.0000   0.0000   0.0000   0.3304
   3.900   0.7189   0.00834   0.00293  -0.0592  0.4799  1.0000  -1.4127   0.0000   0.0000   0.0000   0.3281
   4.000   0.7242   0.00849   0.00299  -0.0581  0.4628  1.0000  -1.4366   0.0000   0.0000   0.0000   0.3259
   4.100   0.7296   0.00866   0.00306  -0.0570  0.4448  1.0000  -1.4608   0.0000   0.0000   0.0000   0.3238
   4.200   0.7357   0.00882   0.00314  -0.0560  0.4260  1.0000  -1.4860   0.0000   0.0000   0.0000   0.3217
   4.300   0.7420   0.00898   0.00321  -0.0551  0.4076  1.0000  -1.5118   0.0000   0.0000   0.0000   0.3198
   4.400   0.7483   0.00915   0.00333  -0.0543  0.3896  1.0000  -1.5378   0.0000   0.0000   0.0000   0.3179
   4.500   0.7548   0.00933   0.00342  -0.0534  0.3718  1.0000  -1.5640   0.0000   0.0000   0.0000   0.3160
   4.600   0.7618   0.00951   0.00351  -0.0526  0.3543  1.0000  -1.5912   0.0000   0.0000   0.0000   0.3143
   4.700   0.7692   0.00966   0.00361  -0.0520  0.3388  1.0000  -1.6225   0.0000   0.0000   0.0000   0.3126
   4.800   0.7764   0.00984   0.00371  -0.0513  0.3239  1.0000  -1.6606   0.0000   0.0000   0.0000   0.3110
   4.900   0.7841   0.01000   0.00380  -0.0507  0.3090  1.0000  -1.7005   0.0000   0.0000   0.0000   0.3095
   5.000   0.7919   0.01017   0.00391  -0.0501  0.2954  1.0000  -1.7407   0.0000   0.0000   0.0000   0.3080
   5.100   0.7995   0.01035   0.00402  -0.0495  0.2812  1.0000  -1.7808   0.0000   0.0000   0.0000   0.3066
   5.200   0.8077   0.01050   0.00412  -0.0489  0.2687  1.0000  -1.8225   0.0000   0.0000   0.0000   0.3052
   5.400   0.8238   0.01084   0.00435  -0.0479  0.2442  1.0000  -1.9060   0.0000   0.0000   0.0000   0.3026
   5.600   0.8401   0.01118   0.00459  -0.0469  0.2220  1.0000  -2.0007   0.0000   0.0000   0.0000   0.3000
   5.700   0.8480   0.01137   0.00471  -0.0463  0.2111  1.0000  -2.0496   0.0000   0.0000   0.0000   0.2988
   5.800   0.8566   0.01152   0.00484  -0.0459  0.2020  1.0000  -2.1006   0.0000   0.0000   0.0000   0.2976
   5.900   0.8648   0.01169   0.00499  -0.0454  0.1924  1.0000  -2.1513   0.0000   0.0000   0.0000   0.2965
   6.000   0.8728   0.01188   0.00513  -0.0449  0.1833  1.0000  -2.2014   0.0000   0.0000   0.0000   0.2953
   6.100   0.8816   0.01202   0.00526  -0.0445  0.1759  1.0000  -2.2541   0.0000   0.0000   0.0000   0.2942
   6.200   0.8897   0.01221   0.00539  -0.0440  0.1675  1.0000  -2.3052   0.0000   0.0000   0.0000   0.2931
   6.300   0.8978   0.01240   0.00555  -0.0435  0.1598  1.0000  -2.3566   0.0000   0.0000   0.0000   0.2920
   6.400   0.9066   0.01254   0.00568  -0.0431  0.1533  1.0000  -2.4106   0.0000   0.0000   0.0000   0.2910
   6.500   0.9147   0.01273   0.00582  -0.0426  0.1458  1.0000  -2.4628   0.0000   0.0000   0.0000   0.2899
   6.600   0.9224   0.01295   0.00600  -0.0421  0.1382  1.0000  -2.5137   0.0000   0.0000   0.0000   0.2888
   6.700   0.9315   0.01307   0.00613  -0.0418  0.1335  1.0000  -2.5698   0.0000   0.0000   0.0000   0.2879
   6.800   0.9399   0.01324   0.00627  -0.0413  0.1277  1.0000  -2.6240   0.0000   0.0000   0.0000   0.2869
   6.900   0.9476   0.01346   0.00644  -0.0408  0.1212  1.0000  -2.6761   0.0000   0.0000   0.0000   0.2859
   7.000   0.9554   0.01368   0.00664  -0.0402  0.1157  1.0000  -2.7282   0.0000   0.0000   0.0000   0.2849
   7.100   0.9645   0.01379   0.00678  -0.0399  0.1124  1.0000  -2.7856   0.0000   0.0000   0.0000   0.2840
   7.200   0.9730   0.01394   0.00693  -0.0395  0.1084  1.0000  -2.8413   0.0000   0.0000   0.0000   0.2831
   7.300   0.9810   0.01414   0.00710  -0.0390  0.1042  1.0000  -2.8957   0.0000   0.0000   0.0000   0.2821
   7.400   0.9882   0.01440   0.00734  -0.0383  0.0992  1.0000  -2.9523   0.0000   0.0000   0.0000   0.2811
   7.500   0.9950   0.01468   0.00762  -0.0376  0.0948  1.0000  -3.0094   0.0000   0.0000   0.0000   0.2800
   7.600   1.0043   0.01477   0.00774  -0.0373  0.0930  1.0000  -3.0785   0.0000   0.0000   0.0000   0.2792
   7.700   1.0132   0.01489   0.00789  -0.0370  0.0905  1.0000  -3.1464   0.0000   0.0000   0.0000   0.2784
   7.800   1.0217   0.01504   0.00805  -0.0366  0.0876  1.0000  -3.2133   0.0000   0.0000   0.0000   0.2776
   7.900   1.0297   0.01523   0.00822  -0.0361  0.0845  1.0000  -3.2790   0.0000   0.0000   0.0000   0.2768
   8.000   1.0372   0.01545   0.00842  -0.0355  0.0813  1.0000  -3.3426   0.0000   0.0000   0.0000   0.2758
   8.100   1.0434   0.01577   0.00872  -0.0347  0.0776  1.0000  -3.3994   0.0000   0.0000   0.0000   0.2748
   8.200   1.0490   0.01614   0.00910  -0.0338  0.0745  1.0000  -3.4521   0.0000   0.0000   0.0000   0.2736
   8.300   1.0579   0.01624   0.00924  -0.0335  0.0736  1.0000  -3.5231   0.0000   0.0000   0.0000   0.2729
   8.400   1.0666   0.01637   0.00940  -0.0331  0.0724  1.0000  -3.5928   0.0000   0.0000   0.0000   0.2721
   8.500   1.0749   0.01651   0.00957  -0.0326  0.0708  1.0000  -3.6615   0.0000   0.0000   0.0000   0.2713
   8.600   1.0830   0.01668   0.00976  -0.0322  0.0690  1.0000  -3.7297   0.0000   0.0000   0.0000   0.2705
   8.700   1.0908   0.01685   0.00995  -0.0317  0.0671  1.0000  -3.7974   0.0000   0.0000   0.0000   0.2697
   8.800   1.0983   0.01705   0.01015  -0.0311  0.0651  1.0000  -3.8699   0.0000   0.0000   0.0000   0.2689
   8.900   1.1051   0.01729   0.01038  -0.0304  0.0629  1.0000  -3.9426   0.0000   0.0000   0.0000   0.2680
   9.000   1.1104   0.01761   0.01069  -0.0295  0.0603  1.0000  -4.0069   0.0000   0.0000   0.0000   0.2669
   9.100   1.1128   0.01814   0.01124  -0.0281  0.0572  1.0000  -4.0531   0.0000   0.0000   0.0000   0.2654
   9.200   1.1179   0.01849   0.01164  -0.0271  0.0557  1.0000  -4.1153   0.0000   0.0000   0.0000   0.2643
   9.300   1.1261   0.01857   0.01177  -0.0266  0.0549  1.0000  -4.1974   0.0000   0.0000   0.0000   0.2636
   9.400   1.1338   0.01869   0.01192  -0.0261  0.0538  1.0000  -4.2776   0.0000   0.0000   0.0000   0.2628
   9.500   1.1411   0.01885   0.01210  -0.0255  0.0523  1.0000  -4.3556   0.0000   0.0000   0.0000   0.2620
   9.600   1.1481   0.01902   0.01230  -0.0249  0.0507  1.0000  -4.4321   0.0000   0.0000   0.0000   0.2612
   9.700   1.1548   0.01921   0.01250  -0.0242  0.0491  1.0000  -4.5085   0.0000   0.0000   0.0000   0.2604
   9.800   1.1610   0.01943   0.01272  -0.0235  0.0474  1.0000  -4.5831   0.0000   0.0000   0.0000   0.2595
   9.900   1.1665   0.01970   0.01299  -0.0226  0.0458  1.0000  -4.6534   0.0000   0.0000   0.0000   0.2585
  10.000   1.1708   0.02007   0.01336  -0.0216  0.0441  1.0000  -4.7150   0.0000   0.0000   0.0000   0.2574
  10.100   1.1728   0.02063   0.01394  -0.0202  0.0422  1.0000  -4.7643   0.0000   0.0000   0.0000   0.2561
  10.200   1.1717   0.02156   0.01494  -0.0185  0.0402  1.0000  -4.8098   0.0000   0.0000   0.0000   0.2545
  10.300   1.1771   0.02190   0.01532  -0.0176  0.0396  1.0000  -4.9164   0.0000   0.0000   0.0000   0.2536
  10.400   1.1839   0.02208   0.01553  -0.0170  0.0392  1.0000  -5.0381   0.0000   0.0000   0.0000   0.2528
  10.500   1.1904   0.02229   0.01578  -0.0164  0.0387  1.0000  -5.1581   0.0000   0.0000   0.0000   0.2521
  10.600   1.1966   0.02254   0.01607  -0.0157  0.0381  1.0000  -5.2758   0.0000   0.0000   0.0000   0.2513
  10.700   1.2025   0.02281   0.01639  -0.0150  0.0374  1.0000  -5.3913   0.0000   0.0000   0.0000   0.2505
  10.800   1.2080   0.02312   0.01673  -0.0142  0.0367  1.0000  -5.5048   0.0000   0.0000   0.0000   0.2497
  10.900   1.2134   0.02343   0.01708  -0.0135  0.0360  1.0000  -5.6182   0.0000   0.0000   0.0000   0.2488
  11.000   1.2186   0.02374   0.01743  -0.0127  0.0353  1.0000  -5.7323   0.0000   0.0000   0.0000   0.2480
  11.100   1.2238   0.02405   0.01777  -0.0120  0.0345  1.0000  -5.8475   0.0000   0.0000   0.0000   0.2472
  11.200   1.2289   0.02435   0.01810  -0.0112  0.0338  1.0000  -5.9639   0.0000   0.0000   0.0000   0.2464
  11.300   1.2340   0.02466   0.01843  -0.0105  0.0331  1.0000  -6.0811   0.0000   0.0000   0.0000   0.2456
  11.400   1.2388   0.02497   0.01877  -0.0098  0.0324  1.0000  -6.1977   0.0000   0.0000   0.0000   0.2448
  11.500   1.2432   0.02531   0.01913  -0.0090  0.0318  1.0000  -6.3117   0.0000   0.0000   0.0000   0.2440
  11.600   1.2470   0.02571   0.01958  -0.0081  0.0311  1.0000  -6.4237   0.0000   0.0000   0.0000   0.2432
  11.700   1.2501   0.02619   0.02008  -0.0073  0.0304  1.0000  -6.5262   0.0000   0.0000   0.0000   0.2423
  11.800   1.2524   0.02677   0.02070  -0.0063  0.0298  1.0000  -6.6178   0.0000   0.0000   0.0000   0.2414
  11.900   1.2536   0.02748   0.02145  -0.0052  0.0292  1.0000  -6.6980   0.0000   0.0000   0.0000   0.2404
  12.000   1.2540   0.02836   0.02240  -0.0041  0.0285  1.0000  -6.7654   0.0000   0.0000   0.0000   0.2393
  12.100   1.2532   0.02951   0.02364  -0.0029  0.0279  1.0000  -6.8149   0.0000   0.0000   0.0000   0.2382
  12.200   1.2509   0.03106   0.02531  -0.0016  0.0272  1.0000  -6.8399   0.0000   0.0000   0.0000   0.2371
  12.300   1.2550   0.03144   0.02574  -0.0010  0.0271  1.0000  -6.9528   0.0000   0.0000   0.0000   0.2364
  12.400   1.2588   0.03184   0.02620  -0.0003  0.0269  1.0000  -7.0637   0.0000   0.0000   0.0000   0.2357
  12.500   1.2624   0.03229   0.02669   0.0004  0.0268  1.0000  -7.1726   0.0000   0.0000   0.0000   0.2350
  12.600   1.2657   0.03276   0.02722   0.0011  0.0266  1.0000  -7.2792   0.0000   0.0000   0.0000   0.2343
  12.700   1.2687   0.03328   0.02780   0.0018  0.0263  1.0000  -7.3820   0.0000   0.0000   0.0000   0.2336
  12.800   1.2713   0.03384   0.02841   0.0025  0.0261  1.0000  -7.4819   0.0000   0.0000   0.0000   0.2328
  12.900   1.2737   0.03443   0.02906   0.0032  0.0259  1.0000  -7.5795   0.0000   0.0000   0.0000   0.2321
  13.000   1.2759   0.03506   0.02975   0.0038  0.0256  1.0000  -7.6746   0.0000   0.0000   0.0000   0.2314
  13.100   1.2777   0.03572   0.03047   0.0045  0.0254  1.0000  -7.7663   0.0000   0.0000   0.0000   0.2307
  13.200   1.2792   0.03640   0.03120   0.0052  0.0251  1.0000  -7.8566   0.0000   0.0000   0.0000   0.2301
  13.300   1.2807   0.03707   0.03194   0.0058  0.0248  1.0000  -7.9469   0.0000   0.0000   0.0000   0.2294
  13.400   1.2820   0.03775   0.03267   0.0064  0.0245  1.0000  -8.0372   0.0000   0.0000   0.0000   0.2287
  13.500   1.2832   0.03842   0.03340   0.0070  0.0241  1.0000  -8.1288   0.0000   0.0000   0.0000   0.2281
  13.600   1.2846   0.03908   0.03410   0.0075  0.0238  1.0000  -8.2236   0.0000   0.0000   0.0000   0.2275
  13.700   1.2860   0.03972   0.03479   0.0080  0.0234  1.0000  -8.3200   0.0000   0.0000   0.0000   0.2270
  13.800   1.2874   0.04036   0.03546   0.0085  0.0230  1.0000  -8.4187   0.0000   0.0000   0.0000   0.2264
  13.900   1.2891   0.04097   0.03610   0.0089  0.0226  1.0000  -8.5222   0.0000   0.0000   0.0000   0.2260
  14.000   1.2907   0.04158   0.03674   0.0092  0.0223  1.0000  -8.6273   0.0000   0.0000   0.0000   0.2255
  14.100   1.2924   0.04219   0.03736   0.0095  0.0219  1.0000  -8.7347   0.0000   0.0000   0.0000   0.2251
  14.200   1.2942   0.04279   0.03799   0.0098  0.0215  1.0000  -8.8442   0.0000   0.0000   0.0000   0.2247
  14.300   1.2955   0.04346   0.03867   0.0100  0.0211  1.0000  -8.9494   0.0000   0.0000   0.0000   0.2243
  14.400   1.2964   0.04419   0.03942   0.0102  0.0208  1.0000  -9.0496   0.0000   0.0000   0.0000   0.2240
  14.500   1.2964   0.04506   0.04031   0.0104  0.0204  1.0000  -9.1383   0.0000   0.0000   0.0000   0.2236
  14.600   1.2953   0.04609   0.04137   0.0106  0.0201  1.0000  -9.2109   0.0000   0.0000   0.0000   0.2233
  14.700   1.2931   0.04731   0.04262   0.0107  0.0198  1.0000  -9.2674   0.0000   0.0000   0.0000   0.2229
  14.800   1.2895   0.04873   0.04410   0.0108  0.0195  1.0000  -9.3034   0.0000   0.0000   0.0000   0.2226
  14.900   1.2848   0.05034   0.04578   0.0109  0.0192  1.0000  -9.3229   0.0000   0.0000   0.0000   0.2223
  15.000   1.2790   0.05214   0.04765   0.0109  0.0190  1.0000  -9.3265   0.0000   0.0000   0.0000   0.2221


