xflr5 v6.61

 Calculated polar for: SG6041

 1 1 Reynolds number fixed          Mach number fixed         

 xtrf =   1.000 (top)        1.000 (bottom)
 Mach =   0.000     Re =     0.100 e 6     Ncrit =   9.000

  alpha     CL        CD       CDp       Cm    Top Xtr Bot Xtr   Cpmin    Chinge    XCp    
 ------- -------- --------- --------- -------- ------- ------- -------- --------- ---------
 -10.000  -0.4127   0.11022   0.10502  -0.0323  1.0000  0.0828  -1.5213   0.0000   0.0000   0.0000   0.1638
  -9.900  -0.4111   0.10901   0.10382  -0.0323  1.0000  0.0838  -1.5082   0.0000   0.0000   0.0000   0.1636
  -9.800  -0.4100   0.10780   0.10262  -0.0323  1.0000  0.0848  -1.4987   0.0000   0.0000   0.0000   0.1634
  -9.700  -0.4092   0.10658   0.10143  -0.0324  1.0000  0.0858  -1.4922   0.0000   0.0000   0.0000   0.1631
  -9.600  -0.4088   0.10537   0.10023  -0.0326  1.0000  0.0868  -1.4884   0.0000   0.0000   0.0000   0.1627
  -9.500  -0.4088   0.10415   0.09903  -0.0328  1.0000  0.0879  -1.4874   0.0000   0.0000   0.0000   0.1623
  -9.400  -0.4092   0.10293   0.09784  -0.0331  1.0000  0.0890  -1.4890   0.0000   0.0000   0.0000   0.1618
  -9.300  -0.4100   0.10172   0.09665  -0.0334  1.0000  0.0901  -1.4935   0.0000   0.0000   0.0000   0.1613
  -9.200  -0.4113   0.10053   0.09548  -0.0338  1.0000  0.0913  -1.5018   0.0000   0.0000   0.0000   0.1607
  -9.100  -0.4135   0.09936   0.09434  -0.0343  1.0000  0.0925  -1.5152   0.0000   0.0000   0.0000   0.1600
  -9.000  -0.4166   0.09824   0.09326  -0.0351  1.0000  0.0938  -1.5366   0.0000   0.0000   0.0000   0.1591
  -8.900  -0.4218   0.09724   0.09230  -0.0361  1.0000  0.0950  -1.5695   0.0000   0.0000   0.0000   0.1579
  -8.800  -0.4293   0.09640   0.09151  -0.0374  1.0000  0.0960  -1.6154   0.0000   0.0000   0.0000   0.1565
  -8.700  -0.4384   0.09561   0.09077  -0.0389  1.0000  0.0967  -1.6675   0.0000   0.0000   0.0000   0.1553
  -8.600  -0.4478   0.09474   0.08996  -0.0401  1.0000  0.0971  -1.7158   0.0000   0.0000   0.0000   0.1547
  -8.500  -0.4577   0.09379   0.08906  -0.0409  1.0000  0.0973  -1.7597   0.0000   0.0000   0.0000   0.1550
  -8.400  -0.4681   0.09293   0.08823  -0.0412  1.0000  0.0974  -1.7987   0.0000   0.0000   0.0000   0.1567
  -8.300  -0.4787   0.09225   0.08757  -0.0409  1.0000  0.0976  -1.8347   0.0000   0.0000   0.0000   0.1596
  -8.200  -0.4884   0.09150   0.08684  -0.0408  1.0000  0.0977  -1.8732   0.0000   0.0000   0.0000   0.1616
  -8.100  -0.4977   0.09083   0.08616  -0.0405  1.0000  0.0979  -1.9089   0.0000   0.0000   0.0000   0.1639
  -8.000  -0.5050   0.09019   0.08551  -0.0401  1.0000  0.0981  -1.9345   0.0000   0.0000   0.0000   0.1661
  -7.900  -0.5114   0.08953   0.08483  -0.0395  1.0000  0.0982  -1.9560   0.0000   0.0000   0.0000   0.1682
  -7.800  -0.5172   0.08883   0.08411  -0.0389  1.0000  0.0983  -1.9746   0.0000   0.0000   0.0000   0.1704
  -7.700  -0.5224   0.08808   0.08333  -0.0383  1.0000  0.0984  -1.9906   0.0000   0.0000   0.0000   0.1725
  -7.600  -0.5271   0.08728   0.08251  -0.0376  1.0000  0.0985  -2.0041   0.0000   0.0000   0.0000   0.1745
  -7.500  -0.5161   0.07986   0.07533  -0.0374  1.0000  0.1009  -1.9342   0.0000   0.0000   0.0000   0.1734
  -7.400  -0.5083   0.07833   0.07386  -0.0359  1.0000  0.1020  -1.8835   0.0000   0.0000   0.0000   0.1752
  -7.300  -0.5045   0.07723   0.07279  -0.0346  1.0000  0.1031  -1.8513   0.0000   0.0000   0.0000   0.1773
  -7.200  -0.5038   0.07622   0.07181  -0.0335  1.0000  0.1041  -1.8340   0.0000   0.0000   0.0000   0.1795
  -7.100  -0.5044   0.07524   0.07085  -0.0325  1.0000  0.1050  -1.8234   0.0000   0.0000   0.0000   0.1816
  -7.000  -0.5058   0.07425   0.06987  -0.0316  1.0000  0.1060  -1.8175   0.0000   0.0000   0.0000   0.1836
  -6.900  -0.5078   0.07325   0.06887  -0.0308  1.0000  0.1071  -1.8157   0.0000   0.0000   0.0000   0.1855
  -6.800  -0.5103   0.07221   0.06784  -0.0301  1.0000  0.1082  -1.8170   0.0000   0.0000   0.0000   0.1872
  -6.700  -0.5130   0.07115   0.06678  -0.0295  1.0000  0.1094  -1.8208   0.0000   0.0000   0.0000   0.1888
  -6.600  -0.5158   0.07006   0.06568  -0.0290  1.0000  0.1107  -1.8268   0.0000   0.0000   0.0000   0.1902
  -6.500  -0.5186   0.06895   0.06455  -0.0286  1.0000  0.1122  -1.8351   0.0000   0.0000   0.0000   0.1914
  -6.400  -0.5215   0.06782   0.06340  -0.0283  1.0000  0.1139  -1.8470   0.0000   0.0000   0.0000   0.1924
  -6.300  -0.5249   0.06676   0.06228  -0.0282  1.0000  0.1163  -1.8672   0.0000   0.0000   0.0000   0.1929
  -6.200  -0.5379   0.07002   0.06499  -0.0287  1.0000  0.1218  -1.9642   0.0000   0.0000   0.0000   0.1933
  -6.100  -0.5431   0.06561   0.06063  -0.0289  1.0000  0.1231  -1.9922   0.0000   0.0000   0.0000   0.1935
  -6.000  -0.5396   0.06278   0.05794  -0.0283  1.0000  0.1243  -1.9667   0.0000   0.0000   0.0000   0.1942
  -5.900  -0.5364   0.06108   0.05631  -0.0276  1.0000  0.1255  -1.9424   0.0000   0.0000   0.0000   0.1955
  -5.800  -0.5331   0.05975   0.05504  -0.0267  1.0000  0.1267  -1.9191   0.0000   0.0000   0.0000   0.1968
  -5.700  -0.5300   0.05861   0.05391  -0.0259  1.0000  0.1280  -1.8988   0.0000   0.0000   0.0000   0.1981
  -5.600  -0.5272   0.05753   0.05284  -0.0251  1.0000  0.1296  -1.8826   0.0000   0.0000   0.0000   0.1993
  -5.500  -0.5245   0.05648   0.05178  -0.0245  1.0000  0.1315  -1.8704   0.0000   0.0000   0.0000   0.2004
  -5.400  -0.5218   0.05543   0.05070  -0.0240  1.0000  0.1339  -1.8623   0.0000   0.0000   0.0000   0.2012
  -5.300  -0.5247   0.05601   0.05077  -0.0246  1.0000  0.1472  -1.9123   0.0000   0.0000   0.0000   0.2002
  -5.200  -0.5213   0.05351   0.04839  -0.0241  1.0000  0.1486  -1.8932   0.0000   0.0000   0.0000   0.2008
  -5.100  -0.5173   0.05189   0.04679  -0.0235  1.0000  0.1501  -1.8732   0.0000   0.0000   0.0000   0.2018
  -5.000  -0.5129   0.05064   0.04559  -0.0227  1.0000  0.1517  -1.8532   0.0000   0.0000   0.0000   0.2028
  -4.900  -0.4897   0.04403   0.03782  -0.0236  1.0000  0.0736  -2.2948   0.0000   0.0000   0.0000   0.1984
  -4.800  -0.4865   0.04133   0.03509  -0.0234  1.0000  0.0696  -2.3128   0.0000   0.0000   0.0000   0.1986
  -4.700  -0.4770   0.03816   0.03114  -0.0222  1.0000  0.0564  -2.5543   0.0000   0.0000   0.0000   0.2000
  -4.600  -0.4677   0.03867   0.03157  -0.0213  1.0000  0.0553  -2.5229   0.0000   0.0000   0.0000   0.2010
  -4.500  -0.4616   0.03637   0.02920  -0.0210  1.0000  0.0533  -2.5421   0.0000   0.0000   0.0000   0.2010
  -4.400  -0.4551   0.03470   0.02735  -0.0206  1.0000  0.0524  -2.5585   0.0000   0.0000   0.0000   0.2013
  -4.300  -0.4479   0.03335   0.02584  -0.0201  1.0000  0.0518  -2.5705   0.0000   0.0000   0.0000   0.2016
  -4.200  -0.4402   0.03215   0.02447  -0.0196  1.0000  0.0513  -2.5812   0.0000   0.0000   0.0000   0.2019
  -4.100  -0.4322   0.03106   0.02321  -0.0191  1.0000  0.0509  -2.5908   0.0000   0.0000   0.0000   0.2023
  -4.000  -0.4240   0.03006   0.02203  -0.0186  1.0000  0.0507  -2.5992   0.0000   0.0000   0.0000   0.2027
  -3.900  -0.4155   0.02913   0.02094  -0.0180  1.0000  0.0508  -2.6059   0.0000   0.0000   0.0000   0.2031
  -3.800  -0.4069   0.02830   0.01995  -0.0175  1.0000  0.0511  -2.6098   0.0000   0.0000   0.0000   0.2035
  -3.700  -0.3984   0.02781   0.01931  -0.0169  1.0000  0.0524  -2.5989   0.0000   0.0000   0.0000   0.2041
  -3.600  -0.3900   0.02791   0.01928  -0.0163  1.0000  0.0543  -2.5669   0.0000   0.0000   0.0000   0.2048
  -3.500  -0.3815   0.02639   0.01758  -0.0159  1.0000  0.0566  -2.5831   0.0000   0.0000   0.0000   0.2048
  -3.400  -0.3736   0.02538   0.01657  -0.0157  1.0000  0.0596  -2.5566   0.0000   0.0000   0.0000   0.2046
  -3.300  -0.3655   0.02490   0.01608  -0.0153  1.0000  0.0622  -2.5246   0.0000   0.0000   0.0000   0.2049
  -3.200  -0.3568   0.02436   0.01547  -0.0147  1.0000  0.0641  -2.5127   0.0000   0.0000   0.0000   0.2053
  -3.100  -0.3479   0.02380   0.01484  -0.0142  1.0000  0.0660  -2.5052   0.0000   0.0000   0.0000   0.2058
  -3.000  -0.3389   0.02327   0.01425  -0.0136  1.0000  0.0684  -2.4977   0.0000   0.0000   0.0000   0.2065
  -2.900  -0.3300   0.02280   0.01370  -0.0130  1.0000  0.0713  -2.4900   0.0000   0.0000   0.0000   0.2072
  -2.800  -0.3213   0.02259   0.01339  -0.0124  1.0000  0.0749  -2.4704   0.0000   0.0000   0.0000   0.2079
  -2.700  -0.3132   0.02161   0.01247  -0.0120  1.0000  0.0819  -2.4518   0.0000   0.0000   0.0000   0.2082
  -2.600  -0.3052   0.02131   0.01222  -0.0116  1.0000  0.0893  -2.4129   0.0000   0.0000   0.0000   0.2088
  -2.500  -0.2966   0.02097   0.01182  -0.0110  1.0000  0.0959  -2.3954   0.0000   0.0000   0.0000   0.2098
  -2.400  -0.2886   0.02024   0.01116  -0.0103  1.0000  0.1039  -2.3809   0.0000   0.0000   0.0000   0.2110
  -2.300  -0.2809   0.01997   0.01094  -0.0098  1.0000  0.1163  -2.3347   0.0000   0.0000   0.0000   0.2118
  -2.200  -0.2734   0.01952   0.01054  -0.0093  1.0000  0.1297  -2.2981   0.0000   0.0000   0.0000   0.2130
  -2.100  -0.2655   0.01929   0.01030  -0.0087  1.0000  0.1447  -2.2516   0.0000   0.0000   0.0000   0.2141
  -2.000  -0.2584   0.01888   0.01004  -0.0081  1.0000  0.1649  -2.2015   0.0000   0.0000   0.0000   0.2154
  -1.900  -0.2510   0.01848   0.00979  -0.0075  1.0000  0.1929  -2.1541   0.0000   0.0000   0.0000   0.2169
  -1.800  -0.2450   0.01760   0.00956  -0.0069  1.0000  0.2793  -2.1141   0.0000   0.0000   0.0000   0.2187
  -1.700  -0.2492   0.01611   0.01006  -0.0032  1.0000  0.6966  -2.0950   0.0000   0.0000   0.0000   0.2342
  -1.600  -0.2496   0.01606   0.01031   0.0002  1.0000  0.8043  -2.0564   0.0000   0.0000   0.0000   0.2481
  -1.500  -0.2436   0.01608   0.01047   0.0023  1.0000  0.8747  -1.9894   0.0000   0.0000   0.0000   0.2568
  -1.400  -0.1543   0.01684   0.01101  -0.0111  1.0000  1.0000  -1.5855   0.0000   0.0000   0.0000   0.1745
  -1.300  -0.1533   0.01676   0.01085  -0.0099  1.0000  1.0000  -1.5435   0.0000   0.0000   0.0000   0.1821
  -1.200  -0.1511   0.01670   0.01073  -0.0088  1.0000  1.0000  -1.4963   0.0000   0.0000   0.0000   0.1882
  -1.100  -0.1468   0.01670   0.01064  -0.0081  0.9998  1.0000  -1.4409   0.0000   0.0000   0.0000   0.1915
  -1.000  -0.1286   0.01690   0.01073  -0.0099  0.9965  1.0000  -1.3309   0.0000   0.0000   0.0000   0.1693
  -0.900  -0.1107   0.01715   0.01084  -0.0117  0.9931  1.0000  -1.2200   0.0000   0.0000   0.0000   0.1409
  -0.800  -0.0923   0.01743   0.01101  -0.0135  0.9900  1.0000  -1.1133   0.0000   0.0000   0.0000   0.0999
  -0.700  -0.0775   0.01751   0.01101  -0.0146  0.9860  1.0000  -1.0219   0.0000   0.0000   0.0000   0.0575
  -0.600  -0.0619   0.01767   0.01108  -0.0159  0.9820  1.0000  -0.9289   0.0000   0.0000   0.0000  -0.0109
  -0.500  -0.0451   0.01787   0.01120  -0.0174  0.9783  1.0000  -0.8494   0.0000   0.0000   0.0000  -0.1401
  -0.400  -0.0264   0.01812   0.01137  -0.0192  0.9750  1.0000  -0.7693   0.0000   0.0000   0.0000  -0.4819
  -0.300  -0.0059   0.01846   0.01162  -0.0213  0.9723  1.0000  -0.6856   0.0000   0.0000   0.0000  -3.3991
  -0.200   0.0060   0.01850   0.01162  -0.0218  0.9679  1.0000  -0.6266   0.0000   0.0000   0.0000   3.8819
  -0.100   0.0182   0.01856   0.01162  -0.0223  0.9631  1.0000  -0.5677   0.0000   0.0000   0.0000   1.4787
   0.000   0.0335   0.01869   0.01169  -0.0234  0.9588  1.0000  -0.5015   0.0000   0.0000   0.0000   0.9488
   0.100   0.0514   0.01888   0.01182  -0.0250  0.9551  1.0000  -0.4430   0.0000   0.0000   0.0000   0.7353
   0.200   0.0715   0.01911   0.01198  -0.0269  0.9520  1.0000  -0.4017   0.0000   0.0000   0.0000   0.6256
   0.300   0.0936   0.01940   0.01222  -0.0292  0.9494  1.0000  -0.3792   0.0000   0.0000   0.0000   0.5610
   0.400   0.1000   0.01936   0.01214  -0.0286  0.9435  1.0000  -0.3868   0.0000   0.0000   0.0000   0.5345
   0.500   0.1122   0.01941   0.01216  -0.0290  0.9383  1.0000  -0.3982   0.0000   0.0000   0.0000   0.5070
   0.600   0.1289   0.01952   0.01223  -0.0303  0.9340  1.0000  -0.4125   0.0000   0.0000   0.0000   0.4829
   0.700   0.1487   0.01966   0.01234  -0.0321  0.9305  1.0000  -0.4297   0.0000   0.0000   0.0000   0.4636
   0.800   0.1708   0.01983   0.01248  -0.0342  0.9276  1.0000  -0.4493   0.0000   0.0000   0.0000   0.4484
   0.900   0.1882   0.01996   0.01258  -0.0356  0.9238  1.0000  -0.4658   0.0000   0.0000   0.0000   0.4368
   1.000   0.1925   0.01993   0.01253  -0.0345  0.9167  1.0000  -0.4734   0.0000   0.0000   0.0000   0.4267
   1.100   0.2078   0.01999   0.01256  -0.0353  0.9118  1.0000  -0.4904   0.0000   0.0000   0.0000   0.4177
   1.200   0.2272   0.02004   0.01260  -0.0369  0.9079  1.0000  -0.5107   0.0000   0.0000   0.0000   0.4101
   1.300   0.2497   0.02010   0.01264  -0.0391  0.9048  1.0000  -0.5336   0.0000   0.0000   0.0000   0.4039
   1.400   0.2748   0.02016   0.01269  -0.0416  0.9024  1.0000  -0.5614   0.0000   0.0000   0.0000   0.3990
   1.500   0.2751   0.02018   0.01270  -0.0398  0.8942  1.0000  -0.5684   0.0000   0.0000   0.0000   0.3919
   1.600   0.2888   0.02018   0.01269  -0.0402  0.8885  1.0000  -0.5870   0.0000   0.0000   0.0000   0.3866
   1.700   0.3089   0.02014   0.01266  -0.0418  0.8844  1.0000  -0.6113   0.0000   0.0000   0.0000   0.3825
   1.800   0.3329   0.02007   0.01259  -0.0440  0.8813  1.0000  -0.6394   0.0000   0.0000   0.0000   0.3794
   1.900   0.3591   0.01996   0.01251  -0.0466  0.8788  1.0000  -0.6697   0.0000   0.0000   0.0000   0.3769
   2.000   0.3603   0.02003   0.01257  -0.0448  0.8705  1.0000  -0.6777   0.0000   0.0000   0.0000   0.3714
   2.100   0.3743   0.01997   0.01251  -0.0452  0.8645  1.0000  -0.6984   0.0000   0.0000   0.0000   0.3678
   2.200   0.3963   0.01980   0.01239  -0.0469  0.8605  1.0000  -0.7295   0.0000   0.0000   0.0000   0.3654
   2.300   0.4221   0.01956   0.01217  -0.0493  0.8575  1.0000  -0.7649   0.0000   0.0000   0.0000   0.3637
   2.400   0.4512   0.01923   0.01188  -0.0522  0.8552  1.0000  -0.8068   0.0000   0.0000   0.0000   0.3626
   2.600   0.4698   0.01910   0.01176  -0.0511  0.8406  1.0000  -0.8513   0.0000   0.0000   0.0000   0.3555
   2.700   0.4941   0.01875   0.01146  -0.0530  0.8366  1.0000  -0.8922   0.0000   0.0000   0.0000   0.3540
   2.800   0.5201   0.01833   0.01108  -0.0552  0.8334  1.0000  -0.9359   0.0000   0.0000   0.0000   0.3528
   2.900   0.5472   0.01788   0.01067  -0.0574  0.8306  1.0000  -0.9815   0.0000   0.0000   0.0000   0.3516
   3.000   0.5464   0.01798   0.01078  -0.0551  0.8205  1.0000  -0.9919   0.0000   0.0000   0.0000   0.3474
   3.100   0.5627   0.01771   0.01054  -0.0556  0.8143  1.0000  -1.0244   0.0000   0.0000   0.0000   0.3452
   3.200   0.5851   0.01728   0.01020  -0.0570  0.8099  1.0000  -1.0674   0.0000   0.0000   0.0000   0.3438
   3.300   0.6102   0.01679   0.00974  -0.0588  0.8060  1.0000  -1.1195   0.0000   0.0000   0.0000   0.3427
   3.400   0.6095   0.01688   0.00984  -0.0564  0.7948  1.0000  -1.1328   0.0000   0.0000   0.0000   0.3389
   3.500   0.6264   0.01654   0.00953  -0.0569  0.7880  1.0000  -1.1732   0.0000   0.0000   0.0000   0.3370
   3.600   0.6490   0.01607   0.00909  -0.0582  0.7825  1.0000  -1.2228   0.0000   0.0000   0.0000   0.3358
   3.700   0.6519   0.01608   0.00912  -0.0564  0.7712  1.0000  -1.2421   0.0000   0.0000   0.0000   0.3326
   3.800   0.6680   0.01575   0.00880  -0.0566  0.7626  1.0000  -1.2822   0.0000   0.0000   0.0000   0.3308
   3.900   0.6806   0.01553   0.00860  -0.0564  0.7531  1.0000  -1.3170   0.0000   0.0000   0.0000   0.3287
   4.000   0.6906   0.01538   0.00846  -0.0557  0.7418  1.0000  -1.3479   0.0000   0.0000   0.0000   0.3265
   4.100   0.7058   0.01512   0.00819  -0.0558  0.7316  1.0000  -1.3874   0.0000   0.0000   0.0000   0.3249
   4.200   0.7140   0.01504   0.00813  -0.0549  0.7182  1.0000  -1.4157   0.0000   0.0000   0.0000   0.3226
   4.300   0.7268   0.01488   0.00795  -0.0547  0.7054  1.0000  -1.4517   0.0000   0.0000   0.0000   0.3208
   4.400   0.7374   0.01478   0.00783  -0.0541  0.6908  1.0000  -1.4843   0.0000   0.0000   0.0000   0.3189
   4.500   0.7467   0.01474   0.00784  -0.0534  0.6746  1.0000  -1.5147   0.0000   0.0000   0.0000   0.3169
   4.600   0.7580   0.01467   0.00772  -0.0529  0.6576  1.0000  -1.5489   0.0000   0.0000   0.0000   0.3152
   4.700   0.7690   0.01464   0.00760  -0.0524  0.6388  1.0000  -1.5889   0.0000   0.0000   0.0000   0.3134
   4.800   0.7769   0.01469   0.00760  -0.0515  0.6182  1.0000  -1.6231   0.0000   0.0000   0.0000   0.3114
   4.900   0.7850   0.01476   0.00759  -0.0506  0.5964  1.0000  -1.6633   0.0000   0.0000   0.0000   0.3095
   5.000   0.7929   0.01488   0.00761  -0.0497  0.5735  1.0000  -1.7035   0.0000   0.0000   0.0000   0.3076
   5.100   0.8004   0.01503   0.00764  -0.0488  0.5498  1.0000  -1.7431   0.0000   0.0000   0.0000   0.3058
   5.200   0.8074   0.01522   0.00771  -0.0478  0.5256  1.0000  -1.7817   0.0000   0.0000   0.0000   0.3039
   5.300   0.8140   0.01544   0.00780  -0.0467  0.5009  1.0000  -1.8194   0.0000   0.0000   0.0000   0.3021
   5.400   0.8201   0.01570   0.00791  -0.0457  0.4762  1.0000  -1.8562   0.0000   0.0000   0.0000   0.3002
   5.500   0.8260   0.01598   0.00804  -0.0446  0.4517  1.0000  -1.8924   0.0000   0.0000   0.0000   0.2984
   5.600   0.8317   0.01629   0.00821  -0.0435  0.4279  1.0000  -1.9282   0.0000   0.0000   0.0000   0.2966
   5.700   0.8373   0.01661   0.00839  -0.0425  0.4051  1.0000  -1.9638   0.0000   0.0000   0.0000   0.2950
   5.800   0.8431   0.01695   0.00860  -0.0415  0.3835  1.0000  -2.0023   0.0000   0.0000   0.0000   0.2933
   5.900   0.8490   0.01730   0.00883  -0.0405  0.3635  1.0000  -2.0440   0.0000   0.0000   0.0000   0.2918
   6.000   0.8550   0.01769   0.00912  -0.0396  0.3452  1.0000  -2.0859   0.0000   0.0000   0.0000   0.2903
   6.100   0.8610   0.01808   0.00937  -0.0388  0.3281  1.0000  -2.1280   0.0000   0.0000   0.0000   0.2888
   6.200   0.8675   0.01843   0.00966  -0.0380  0.3110  1.0000  -2.1706   0.0000   0.0000   0.0000   0.2874
   6.300   0.8740   0.01884   0.00995  -0.0372  0.2960  1.0000  -2.2137   0.0000   0.0000   0.0000   0.2861
   6.400   0.8804   0.01923   0.01023  -0.0364  0.2820  1.0000  -2.2572   0.0000   0.0000   0.0000   0.2848
   6.500   0.8874   0.01960   0.01056  -0.0357  0.2684  1.0000  -2.3011   0.0000   0.0000   0.0000   0.2836
   6.600   0.8940   0.02004   0.01085  -0.0350  0.2567  1.0000  -2.3459   0.0000   0.0000   0.0000   0.2825
   6.700   0.9013   0.02037   0.01120  -0.0344  0.2447  1.0000  -2.3904   0.0000   0.0000   0.0000   0.2813
   6.800   0.9083   0.02079   0.01150  -0.0338  0.2345  1.0000  -2.4361   0.0000   0.0000   0.0000   0.2802
   6.900   0.9162   0.02121   0.01190  -0.0333  0.2247  1.0000  -2.4817   0.0000   0.0000   0.0000   0.2792
   7.000   0.9238   0.02157   0.01225  -0.0327  0.2158  1.0000  -2.5278   0.0000   0.0000   0.0000   0.2782
   7.100   0.9327   0.02222   0.01272  -0.0325  0.2076  1.0000  -2.5771   0.0000   0.0000   0.0000   0.2775
   7.200   0.9407   0.02253   0.01314  -0.0319  0.2002  1.0000  -2.6213   0.0000   0.0000   0.0000   0.2765
   7.300   0.9488   0.02291   0.01352  -0.0314  0.1930  1.0000  -2.6682   0.0000   0.0000   0.0000   0.2756
   7.400   0.9580   0.02354   0.01401  -0.0312  0.1864  1.0000  -2.7187   0.0000   0.0000   0.0000   0.2750
   7.500   0.9670   0.02404   0.01457  -0.0309  0.1803  1.0000  -2.7642   0.0000   0.0000   0.0000   0.2742
   7.600   0.9751   0.02440   0.01500  -0.0304  0.1741  1.0000  -2.8146   0.0000   0.0000   0.0000   0.2733
   7.700   0.9831   0.02478   0.01540  -0.0299  0.1684  1.0000  -2.8714   0.0000   0.0000   0.0000   0.2725
   7.800   0.9942   0.02574   0.01616  -0.0302  0.1616  1.0000  -2.9365   0.0000   0.0000   0.0000   0.2724
   7.900   1.0008   0.02595   0.01654  -0.0294  0.1573  1.0000  -2.9853   0.0000   0.0000   0.0000   0.2712
   8.000   1.0086   0.02631   0.01699  -0.0288  0.1524  1.0000  -3.0383   0.0000   0.0000   0.0000   0.2703
   8.100   1.0171   0.02676   0.01746  -0.0284  0.1479  1.0000  -3.0945   0.0000   0.0000   0.0000   0.2696
   8.200   1.0260   0.02727   0.01793  -0.0282  0.1438  1.0000  -3.1541   0.0000   0.0000   0.0000   0.2690
   8.300   1.0382   0.02851   0.01906  -0.0287  0.1385  1.0000  -3.2167   0.0000   0.0000   0.0000   0.2690
   8.400   1.0449   0.02878   0.01949  -0.0279  0.1354  1.0000  -3.2649   0.0000   0.0000   0.0000   0.2680
   8.500   1.0517   0.02913   0.01996  -0.0272  0.1314  1.0000  -3.3142   0.0000   0.0000   0.0000   0.2670
   8.600   1.0587   0.02949   0.02037  -0.0266  0.1273  1.0000  -3.3675   0.0000   0.0000   0.0000   0.2661
   8.700   1.0661   0.02987   0.02073  -0.0261  0.1234  1.0000  -3.4252   0.0000   0.0000   0.0000   0.2654
   8.800   1.0750   0.03054   0.02135  -0.0259  0.1197  1.0000  -3.4856   0.0000   0.0000   0.0000   0.2649
   8.900   1.0859   0.03209   0.02292  -0.0262  0.1160  1.0000  -3.5335   0.0000   0.0000   0.0000   0.2648
   9.000   1.0925   0.03254   0.02354  -0.0254  0.1139  1.0000  -3.5846   0.0000   0.0000   0.0000   0.2638
   9.100   1.0995   0.03314   0.02429  -0.0247  0.1114  1.0000  -3.6358   0.0000   0.0000   0.0000   0.2630
   9.200   1.1063   0.03378   0.02505  -0.0241  0.1086  1.0000  -3.6875   0.0000   0.0000   0.0000   0.2621
   9.300   1.1129   0.03437   0.02573  -0.0234  0.1057  1.0000  -3.7414   0.0000   0.0000   0.0000   0.2613
   9.400   1.1196   0.03487   0.02626  -0.0228  0.1028  1.0000  -3.8015   0.0000   0.0000   0.0000   0.2605
   9.500   1.1269   0.03539   0.02680  -0.0225  0.0999  1.0000  -3.8690   0.0000   0.0000   0.0000   0.2599
   9.600   1.1349   0.03673   0.02810  -0.0225  0.0966  1.0000  -3.9304   0.0000   0.0000   0.0000   0.2596
   9.700   1.1393   0.03825   0.02976  -0.0218  0.0943  1.0000  -3.9612   0.0000   0.0000   0.0000   0.2589
   9.800   1.1433   0.03866   0.03034  -0.0207  0.0927  1.0000  -4.0032   0.0000   0.0000   0.0000   0.2577
   9.900   1.1476   0.03941   0.03125  -0.0197  0.0910  1.0000  -4.0401   0.0000   0.0000   0.0000   0.2567
  10.000   1.1517   0.04030   0.03231  -0.0188  0.0895  1.0000  -4.0737   0.0000   0.0000   0.0000   0.2557
  10.100   1.1555   0.04125   0.03341  -0.0178  0.0880  1.0000  -4.1213   0.0000   0.0000   0.0000   0.2547
  10.200   1.1590   0.04222   0.03452  -0.0169  0.0865  1.0000  -4.1741   0.0000   0.0000   0.0000   0.2538
  10.300   1.1624   0.04320   0.03562  -0.0160  0.0852  1.0000  -4.2268   0.0000   0.0000   0.0000   0.2528
  10.400   1.1656   0.04418   0.03672  -0.0151  0.0840  1.0000  -4.2801   0.0000   0.0000   0.0000   0.2519
  10.500   1.1680   0.04518   0.03784  -0.0141  0.0829  1.0000  -4.3293   0.0000   0.0000   0.0000   0.2509
  10.600   1.1701   0.04620   0.03896  -0.0131  0.0819  1.0000  -4.3774   0.0000   0.0000   0.0000   0.2499
  10.700   1.1720   0.04723   0.04009  -0.0121  0.0809  1.0000  -4.4251   0.0000   0.0000   0.0000   0.2489
  10.800   1.1738   0.04829   0.04124  -0.0112  0.0801  1.0000  -4.4728   0.0000   0.0000   0.0000   0.2480
  10.900   1.1758   0.04935   0.04237  -0.0103  0.0792  1.0000  -4.5238   0.0000   0.0000   0.0000   0.2471
  11.000   1.1779   0.05047   0.04354  -0.0095  0.0782  1.0000  -4.5781   0.0000   0.0000   0.0000   0.2463
  11.100   1.1793   0.05185   0.04497  -0.0088  0.0771  1.0000  -4.6252   0.0000   0.0000   0.0000   0.2456
  11.200   1.1778   0.05364   0.04684  -0.0079  0.0763  1.0000  -4.6484   0.0000   0.0000   0.0000   0.2447
  11.300   1.1731   0.05567   0.04900  -0.0067  0.0757  1.0000  -4.6469   0.0000   0.0000   0.0000   0.2437
  11.400   1.1663   0.05774   0.05120  -0.0054  0.0753  1.0000  -4.6308   0.0000   0.0000   0.0000   0.2425
  11.500   1.1580   0.05968   0.05326  -0.0039  0.0750  1.0000  -4.6081   0.0000   0.0000   0.0000   0.2411
  11.600   1.1488   0.06143   0.05513  -0.0023  0.0748  1.0000  -4.5833   0.0000   0.0000   0.0000   0.2396
  11.700   1.1402   0.06274   0.05650  -0.0006  0.0747  1.0000  -4.5678   0.0000   0.0000   0.0000   0.2380
  11.800   1.1324   0.06364   0.05751   0.0010  0.0745  1.0000  -4.5627   0.0000   0.0000   0.0000   0.2365
  11.900   1.1242   0.06471   0.05866   0.0025  0.0744  1.0000  -4.5527   0.0000   0.0000   0.0000   0.2351
  12.000   1.1155   0.06591   0.05996   0.0037  0.0742  1.0000  -4.5379   0.0000   0.0000   0.0000   0.2338
  12.100   1.1064   0.06727   0.06141   0.0048  0.0742  1.0000  -4.5183   0.0000   0.0000   0.0000   0.2327
  12.200   1.0968   0.06878   0.06300   0.0057  0.0741  1.0000  -4.4940   0.0000   0.0000   0.0000   0.2317
  12.300   1.0869   0.07044   0.06475   0.0063  0.0741  1.0000  -4.4649   0.0000   0.0000   0.0000   0.2309
  12.400   1.0765   0.07227   0.06666   0.0068  0.0742  1.0000  -4.4309   0.0000   0.0000   0.0000   0.2303
  12.500   1.0658   0.07429   0.06875   0.0070  0.0743  1.0000  -4.3919   0.0000   0.0000   0.0000   0.2299
  12.600   1.0547   0.07652   0.07105   0.0070  0.0744  1.0000  -4.3474   0.0000   0.0000   0.0000   0.2296
  12.700   1.0433   0.07900   0.07359   0.0068  0.0746  1.0000  -4.2971   0.0000   0.0000   0.0000   0.2297
  12.900   0.8818   0.10748   0.10242  -0.0133  0.0898  1.0000  -2.9599   0.0000   0.0000   0.0000   0.2515
  13.000   0.8703   0.11246   0.10737  -0.0160  0.0909  1.0000  -2.8587   0.0000   0.0000   0.0000   0.2548
  13.100   0.8626   0.11646   0.11135  -0.0180  0.0917  1.0000  -2.7886   0.0000   0.0000   0.0000   0.2572
  13.200   0.8572   0.11996   0.11484  -0.0195  0.0924  1.0000  -2.7361   0.0000   0.0000   0.0000   0.2591
  13.300   0.8534   0.12311   0.11798  -0.0207  0.0930  1.0000  -2.6971   0.0000   0.0000   0.0000   0.2606
  13.400   0.8514   0.12596   0.12083  -0.0215  0.0937  1.0000  -2.6721   0.0000   0.0000   0.0000   0.2615
  13.500   0.8523   0.12842   0.12330  -0.0217  0.0945  1.0000  -2.6701   0.0000   0.0000   0.0000   0.2616
  13.600   0.7817   0.15142   0.14612  -0.0391  0.1457  1.0000  -1.8528   0.0000   0.0000   0.0000   0.2873
  13.700   0.7866   0.15291   0.14763  -0.0391  0.1443  1.0000  -1.8745   0.0000   0.0000   0.0000   0.2869
  13.800   0.7933   0.15439   0.14913  -0.0389  0.1431  1.0000  -1.9063   0.0000   0.0000   0.0000   0.2860
  13.900   0.8022   0.15595   0.15073  -0.0382  0.1419  1.0000  -1.9494   0.0000   0.0000   0.0000   0.2846
  14.000   0.8138   0.15781   0.15264  -0.0372  0.1408  1.0000  -2.0058   0.0000   0.0000   0.0000   0.2825
  14.100   0.8383   0.16330   0.15821  -0.0340  0.1388  1.0000  -2.1219   0.0000   0.0000   0.0000   0.2773
  14.200   0.8332   0.16535   0.16024  -0.0357  0.1387  1.0000  -2.0820   0.0000   0.0000   0.0000   0.2795
  14.300   0.8272   0.16721   0.16207  -0.0375  0.1385  1.0000  -2.0377   0.0000   0.0000   0.0000   0.2819
  14.400   0.8202   0.16881   0.16364  -0.0395  0.1382  1.0000  -1.9884   0.0000   0.0000   0.0000   0.2846
  14.500   0.8112   0.17007   0.16488  -0.0419  0.1377  1.0000  -1.9275   0.0000   0.0000   0.0000   0.2880
  14.600   0.7982   0.17094   0.16569  -0.0449  0.1364  1.0000  -1.8456   0.0000   0.0000   0.0000   0.2925
  14.700   0.7881   0.17183   0.16654  -0.0474  0.1338  1.0000  -1.7812   0.0000   0.0000   0.0000   0.2962
  14.800   0.7857   0.17312   0.16783  -0.0487  0.1310  1.0000  -1.7585   0.0000   0.0000   0.0000   0.2979
  14.900   0.7864   0.17450   0.16921  -0.0495  0.1283  1.0000  -1.7547   0.0000   0.0000   0.0000   0.2987
  15.000   0.7895   0.17580   0.17051  -0.0499  0.1256  1.0000  -1.7661   0.0000   0.0000   0.0000   0.2988


