xflr5 v6.61

 Calculated polar for: SG6041

 1 1 Reynolds number fixed          Mach number fixed         

 xtrf =   1.000 (top)        1.000 (bottom)
 Mach =   0.000     Re =     0.500 e 6     Ncrit =   9.000

  alpha     CL        CD       CDp       Cm    Top Xtr Bot Xtr   Cpmin    Chinge    XCp    
 ------- -------- --------- --------- -------- ------- ------- -------- --------- ---------
 -10.000  -0.4382   0.09428   0.09194  -0.0383  1.0000  0.0174  -2.5827   0.0000   0.0000   0.0000   0.1540
  -9.900  -0.4402   0.09266   0.09033  -0.0387  1.0000  0.0176  -2.5956   0.0000   0.0000   0.0000   0.1538
  -9.800  -0.4413   0.09129   0.08897  -0.0389  1.0000  0.0177  -2.5898   0.0000   0.0000   0.0000   0.1537
  -9.700  -0.4412   0.09023   0.08792  -0.0388  1.0000  0.0178  -2.5602   0.0000   0.0000   0.0000   0.1539
  -9.600  -0.4411   0.08919   0.08689  -0.0388  1.0000  0.0180  -2.5307   0.0000   0.0000   0.0000   0.1541
  -9.500  -0.4412   0.08814   0.08585  -0.0388  1.0000  0.0181  -2.5035   0.0000   0.0000   0.0000   0.1542
  -9.400  -0.4414   0.08708   0.08480  -0.0388  1.0000  0.0183  -2.4800   0.0000   0.0000   0.0000   0.1543
  -9.300  -0.4419   0.08599   0.08373  -0.0389  1.0000  0.0184  -2.4598   0.0000   0.0000   0.0000   0.1545
  -9.200  -0.4425   0.08494   0.08268  -0.0389  1.0000  0.0186  -2.4395   0.0000   0.0000   0.0000   0.1548
  -9.100  -0.4436   0.08382   0.08158  -0.0389  1.0000  0.0187  -2.4262   0.0000   0.0000   0.0000   0.1551
  -9.000  -0.4453   0.08266   0.08043  -0.0390  1.0000  0.0188  -2.4196   0.0000   0.0000   0.0000   0.1554
  -8.900  -0.4476   0.08145   0.07924  -0.0390  1.0000  0.0190  -2.4195   0.0000   0.0000   0.0000   0.1558
  -8.800  -0.4506   0.08019   0.07800  -0.0391  1.0000  0.0191  -2.4262   0.0000   0.0000   0.0000   0.1564
  -8.700  -0.4546   0.07891   0.07673  -0.0391  1.0000  0.0192  -2.4403   0.0000   0.0000   0.0000   0.1573
  -8.600  -0.4598   0.07759   0.07544  -0.0391  1.0000  0.0192  -2.4633   0.0000   0.0000   0.0000   0.1585
  -8.500  -0.4667   0.07624   0.07412  -0.0390  1.0000  0.0192  -2.4984   0.0000   0.0000   0.0000   0.1601
  -8.400  -0.4765   0.07481   0.07271  -0.0389  1.0000  0.0191  -2.5552   0.0000   0.0000   0.0000   0.1623
  -8.300  -0.4972   0.07266   0.07060  -0.0393  1.0000  0.0188  -2.7138   0.0000   0.0000   0.0000   0.1653
  -8.200  -0.5200   0.07024   0.06818  -0.0399  0.9995  0.0184  -2.9090   0.0000   0.0000   0.0000   0.1677
  -8.100  -0.5154   0.06813   0.06603  -0.0427  0.9978  0.0186  -2.8920   0.0000   0.0000   0.0000   0.1618
  -8.000  -0.5091   0.06611   0.06398  -0.0453  0.9961  0.0188  -2.8590   0.0000   0.0000   0.0000   0.1556
  -7.900  -0.5023   0.06416   0.06200  -0.0478  0.9944  0.0191  -2.8233   0.0000   0.0000   0.0000   0.1495
  -7.800  -0.4958   0.06217   0.05997  -0.0502  0.9929  0.0194  -2.7964   0.0000   0.0000   0.0000   0.1434
  -7.700  -0.4890   0.06013   0.05788  -0.0526  0.9916  0.0197  -2.7752   0.0000   0.0000   0.0000   0.1372
  -7.600  -0.4822   0.05806   0.05575  -0.0549  0.9904  0.0201  -2.7591   0.0000   0.0000   0.0000   0.1310
  -7.500  -0.4794   0.05629   0.05393  -0.0558  0.9881  0.0204  -2.7547   0.0000   0.0000   0.0000   0.1284
  -7.400  -0.4750   0.05442   0.05201  -0.0570  0.9858  0.0208  -2.7492   0.0000   0.0000   0.0000   0.1249
  -7.300  -0.4695   0.05249   0.05001  -0.0582  0.9836  0.0212  -2.7449   0.0000   0.0000   0.0000   0.1209
  -7.200  -0.4630   0.05051   0.04795  -0.0595  0.9816  0.0217  -2.7427   0.0000   0.0000   0.0000   0.1164
  -7.100  -0.4556   0.04851   0.04585  -0.0607  0.9798  0.0223  -2.7437   0.0000   0.0000   0.0000   0.1116
  -7.000  -0.4469   0.04654   0.04376  -0.0618  0.9782  0.0230  -2.7485   0.0000   0.0000   0.0000   0.1064
  -6.900  -0.4356   0.04516   0.04228  -0.0627  0.9770  0.0239  -2.7293   0.0000   0.0000   0.0000   0.1007
  -6.800  -0.4192   0.04538   0.04240  -0.0632  0.9763  0.0249  -2.6491   0.0000   0.0000   0.0000   0.0939
  -6.700  -0.4086   0.04431   0.04120  -0.0641  0.9752  0.0251  -2.6112   0.0000   0.0000   0.0000   0.0878
  -6.600  -0.3988   0.04293   0.03970  -0.0650  0.9742  0.0252  -2.5914   0.0000   0.0000   0.0000   0.0816
  -6.500  -0.3890   0.04147   0.03812  -0.0659  0.9734  0.0252  -2.5842   0.0000   0.0000   0.0000   0.0751
  -6.300  -0.3932   0.03327   0.02940  -0.0660  0.9679  0.0264  -2.8437   0.0000   0.0000   0.0000   0.0765
  -6.200  -0.3891   0.03178   0.02785  -0.0656  0.9651  0.0269  -2.8246   0.0000   0.0000   0.0000   0.0759
  -6.100  -0.3813   0.03069   0.02669  -0.0656  0.9631  0.0273  -2.7813   0.0000   0.0000   0.0000   0.0725
  -6.000  -0.3720   0.02977   0.02571  -0.0658  0.9615  0.0277  -2.7287   0.0000   0.0000   0.0000   0.0676
  -5.800  -0.3566   0.02274   0.01782  -0.0639  0.9580  0.0176  -3.2754   0.0000   0.0000   0.0000   0.0647
  -5.700  -0.3447   0.02159   0.01665  -0.0641  0.9571  0.0157  -3.2709   0.0000   0.0000   0.0000   0.0579
  -5.600  -0.3345   0.01980   0.01464  -0.0641  0.9562  0.0148  -3.3301   0.0000   0.0000   0.0000   0.0520
  -5.500  -0.3230   0.01828   0.01290  -0.0642  0.9554  0.0140  -3.3846   0.0000   0.0000   0.0000   0.0450
  -5.400  -0.3109   0.01696   0.01138  -0.0642  0.9547  0.0134  -3.4336   0.0000   0.0000   0.0000   0.0369
  -5.300  -0.2982   0.01599   0.01026  -0.0645  0.9541  0.0130  -3.4410   0.0000   0.0000   0.0000   0.0272
  -5.200  -0.2852   0.01525   0.00942  -0.0648  0.9535  0.0127  -3.4187   0.0000   0.0000   0.0000   0.0160
  -5.100  -0.2719   0.01465   0.00872  -0.0652  0.9530  0.0126  -3.3782   0.0000   0.0000   0.0000   0.0034
  -5.000  -0.2586   0.01414   0.00815  -0.0657  0.9525  0.0126  -3.3247   0.0000   0.0000   0.0000  -0.0109
  -4.900  -0.2453   0.01369   0.00765  -0.0661  0.9519  0.0126  -3.2647   0.0000   0.0000   0.0000  -0.0266
  -4.800  -0.2321   0.01329   0.00721  -0.0666  0.9512  0.0127  -3.2005   0.0000   0.0000   0.0000  -0.0442
  -4.700  -0.2188   0.01292   0.00680  -0.0670  0.9506  0.0128  -3.1332   0.0000   0.0000   0.0000  -0.0638
  -4.600  -0.2057   0.01259   0.00643  -0.0674  0.9498  0.0130  -3.0639   0.0000   0.0000   0.0000  -0.0858
  -4.500  -0.1926   0.01229   0.00611  -0.0679  0.9490  0.0133  -2.9938   0.0000   0.0000   0.0000  -0.1104
  -4.400  -0.1876   0.01210   0.00590  -0.0666  0.9461  0.0135  -2.9473   0.0000   0.0000   0.0000  -0.1129
  -4.300  -0.1796   0.01190   0.00567  -0.0659  0.9436  0.0139  -2.8930   0.0000   0.0000   0.0000  -0.1248
  -4.200  -0.1698   0.01167   0.00542  -0.0655  0.9415  0.0144  -2.8355   0.0000   0.0000   0.0000  -0.1443
  -4.100  -0.1590   0.01145   0.00518  -0.0654  0.9397  0.0152  -2.7791   0.0000   0.0000   0.0000  -0.1700
  -4.000  -0.1475   0.01125   0.00495  -0.0655  0.9382  0.0163  -2.7236   0.0000   0.0000   0.0000  -0.2028
  -3.900  -0.1366   0.01083   0.00450  -0.0653  0.9366  0.0201  -2.7246   0.0000   0.0000   0.0000  -0.2378
  -3.800  -0.1243   0.01064   0.00433  -0.0656  0.9353  0.0250  -2.6644   0.0000   0.0000   0.0000  -0.2874
  -3.700  -0.1125   0.01034   0.00410  -0.0657  0.9339  0.0365  -2.6051   0.0000   0.0000   0.0000  -0.3449
  -3.600  -0.1001   0.01014   0.00393  -0.0660  0.9327  0.0469  -2.5160   0.0000   0.0000   0.0000  -0.4203
  -3.500  -0.0873   0.01002   0.00382  -0.0663  0.9315  0.0533  -2.4101   0.0000   0.0000   0.0000  -0.5220
  -3.400  -0.0747   0.00989   0.00370  -0.0666  0.9304  0.0612  -2.3060   0.0000   0.0000   0.0000  -0.6565
  -3.300  -0.0623   0.00973   0.00361  -0.0669  0.9292  0.0715  -2.2006   0.0000   0.0000   0.0000  -0.8411
  -3.200  -0.0498   0.00962   0.00351  -0.0672  0.9279  0.0807  -2.0964   0.0000   0.0000   0.0000  -1.1204
  -3.100  -0.0375   0.00946   0.00342  -0.0675  0.9266  0.0948  -1.9951   0.0000   0.0000   0.0000  -1.5752
  -3.000  -0.0267   0.00931   0.00334  -0.0675  0.9248  0.1122  -1.9018   0.0000   0.0000   0.0000  -2.3077
  -2.900  -0.0188   0.00916   0.00327  -0.0668  0.9223  0.1330  -1.8214   0.0000   0.0000   0.0000  -3.3469
  -2.800  -0.0102   0.00897   0.00319  -0.0664  0.9197  0.1646  -1.7386   0.0000   0.0000   0.0000  -6.3719
  -2.700  -0.0013   0.00869   0.00310  -0.0661  0.9172  0.2151  -1.6560   0.0000   0.0000   0.0000  -51.1929
  -2.600   0.0073   0.00832   0.00299  -0.0658  0.9148  0.2894  -1.5753   0.0000   0.0000   0.0000   9.3150
  -2.500   0.0156   0.00787   0.00288  -0.0654  0.9124  0.3836  -1.4969   0.0000   0.0000   0.0000   4.4887
  -2.400   0.0235   0.00739   0.00278  -0.0650  0.9101  0.4878  -1.4201   0.0000   0.0000   0.0000   3.0407
  -2.300   0.0318   0.00703   0.00274  -0.0644  0.9080  0.5787  -1.3416   0.0000   0.0000   0.0000   2.2948
  -2.200   0.0416   0.00684   0.00272  -0.0640  0.9061  0.6346  -1.2561   0.0000   0.0000   0.0000   1.8052
  -2.100   0.0525   0.00675   0.00271  -0.0639  0.9042  0.6686  -1.1703   0.0000   0.0000   0.0000   1.4778
  -2.000   0.0641   0.00670   0.00270  -0.0638  0.9022  0.6903  -1.0833   0.0000   0.0000   0.0000   1.2541
  -1.900   0.0740   0.00669   0.00269  -0.0635  0.8999  0.7050  -1.0043   0.0000   0.0000   0.0000   1.1143
  -1.800   0.0833   0.00665   0.00269  -0.0630  0.8973  0.7170  -0.9290   0.0000   0.0000   0.0000   1.0118
  -1.700   0.0934   0.00663   0.00266  -0.0627  0.8946  0.7279  -0.8518   0.0000   0.0000   0.0000   0.9251
  -1.600   0.1038   0.00659   0.00264  -0.0624  0.8919  0.7369  -0.7753   0.0000   0.0000   0.0000   0.8546
  -1.500   0.1146   0.00656   0.00261  -0.0622  0.8893  0.7459  -0.6988   0.0000   0.0000   0.0000   0.7955
  -1.400   0.1259   0.00654   0.00257  -0.0621  0.8868  0.7537  -0.6332   0.0000   0.0000   0.0000   0.7456
  -1.300   0.1369   0.00649   0.00254  -0.0619  0.8844  0.7610  -0.5752   0.0000   0.0000   0.0000   0.7042
  -1.200   0.1481   0.00647   0.00251  -0.0618  0.8820  0.7697  -0.5176   0.0000   0.0000   0.0000   0.6686
  -1.100   0.1599   0.00647   0.00248  -0.0618  0.8796  0.7780  -0.4647   0.0000   0.0000   0.0000   0.6375
  -1.000   0.1709   0.00645   0.00248  -0.0616  0.8769  0.7852  -0.4261   0.0000   0.0000   0.0000   0.6113
  -0.900   0.1803   0.00643   0.00248  -0.0611  0.8740  0.7930  -0.3991   0.0000   0.0000   0.0000   0.5896
  -0.800   0.1903   0.00642   0.00247  -0.0608  0.8709  0.8003  -0.4071   0.0000   0.0000   0.0000   0.5697
  -0.700   0.2006   0.00640   0.00245  -0.0605  0.8677  0.8060  -0.4162   0.0000   0.0000   0.0000   0.5516
  -0.600   0.2109   0.00637   0.00243  -0.0601  0.8645  0.8123  -0.4255   0.0000   0.0000   0.0000   0.5351
  -0.500   0.2214   0.00635   0.00241  -0.0598  0.8614  0.8203  -0.4363   0.0000   0.0000   0.0000   0.5200
  -0.400   0.2321   0.00634   0.00239  -0.0595  0.8584  0.8290  -0.4476   0.0000   0.0000   0.0000   0.5062
  -0.300   0.2426   0.00632   0.00239  -0.0592  0.8554  0.8379  -0.4588   0.0000   0.0000   0.0000   0.4934
  -0.200   0.2528   0.00633   0.00240  -0.0588  0.8522  0.8464  -0.4698   0.0000   0.0000   0.0000   0.4819
  -0.100   0.2621   0.00632   0.00240  -0.0583  0.8487  0.8531  -0.4808   0.0000   0.0000   0.0000   0.4716
   0.000   0.2716   0.00628   0.00240  -0.0578  0.8449  0.8592  -0.4926   0.0000   0.0000   0.0000   0.4618
   0.100   0.2814   0.00627   0.00239  -0.0573  0.8412  0.8650  -0.5048   0.0000   0.0000   0.0000   0.4527
   0.200   0.2917   0.00626   0.00236  -0.0570  0.8375  0.8705  -0.5172   0.0000   0.0000   0.0000   0.4443
   0.300   0.3026   0.00625   0.00233  -0.0568  0.8339  0.8752  -0.5308   0.0000   0.0000   0.0000   0.4366
   0.400   0.3138   0.00623   0.00230  -0.0567  0.8302  0.8794  -0.5455   0.0000   0.0000   0.0000   0.4293
   0.500   0.3234   0.00621   0.00229  -0.0562  0.8260  0.8835  -0.5592   0.0000   0.0000   0.0000   0.4225
   0.600   0.3331   0.00619   0.00228  -0.0558  0.8212  0.8876  -0.5744   0.0000   0.0000   0.0000   0.4161
   0.700   0.3432   0.00617   0.00226  -0.0555  0.8164  0.8916  -0.5905   0.0000   0.0000   0.0000   0.4101
   0.800   0.3539   0.00616   0.00223  -0.0553  0.8119  0.8954  -0.6070   0.0000   0.0000   0.0000   0.4046
   0.900   0.3649   0.00616   0.00220  -0.0552  0.8077  0.8989  -0.6240   0.0000   0.0000   0.0000   0.3994
   1.000   0.3755   0.00615   0.00218  -0.0550  0.8034  0.9024  -0.6406   0.0000   0.0000   0.0000   0.3945
   1.100   0.3853   0.00613   0.00218  -0.0546  0.7982  0.9062  -0.6567   0.0000   0.0000   0.0000   0.3898
   1.200   0.3955   0.00611   0.00217  -0.0543  0.7926  0.9101  -0.6732   0.0000   0.0000   0.0000   0.3852
   1.300   0.4060   0.00610   0.00215  -0.0540  0.7870  0.9142  -0.6900   0.0000   0.0000   0.0000   0.3810
   1.400   0.4166   0.00611   0.00212  -0.0538  0.7817  0.9183  -0.7070   0.0000   0.0000   0.0000   0.3770
   1.500   0.4263   0.00610   0.00213  -0.0535  0.7756  0.9227  -0.7233   0.0000   0.0000   0.0000   0.3731
   1.600   0.4368   0.00609   0.00212  -0.0532  0.7684  0.9268  -0.7416   0.0000   0.0000   0.0000   0.3695
   1.700   0.4478   0.00610   0.00210  -0.0531  0.7609  0.9306  -0.7620   0.0000   0.0000   0.0000   0.3661
   1.800   0.4587   0.00611   0.00210  -0.0529  0.7531  0.9349  -0.7824   0.0000   0.0000   0.0000   0.3629
   1.900   0.4695   0.00612   0.00209  -0.0527  0.7443  0.9395  -0.8027   0.0000   0.0000   0.0000   0.3598
   2.000   0.4800   0.00615   0.00207  -0.0525  0.7356  0.9444  -0.8260   0.0000   0.0000   0.0000   0.3568
   2.100   0.4908   0.00617   0.00208  -0.0524  0.7268  0.9489  -0.8503   0.0000   0.0000   0.0000   0.3540
   2.200   0.5040   0.00620   0.00208  -0.0528  0.7171  0.9521  -0.8774   0.0000   0.0000   0.0000   0.3519
   2.300   0.5172   0.00625   0.00209  -0.0532  0.7083  0.9554  -0.9048   0.0000   0.0000   0.0000   0.3500
   2.400   0.5306   0.00629   0.00211  -0.0536  0.6981  0.9589  -0.9325   0.0000   0.0000   0.0000   0.3482
   2.500   0.5434   0.00635   0.00212  -0.0540  0.6874  0.9627  -0.9598   0.0000   0.0000   0.0000   0.3463
   2.600   0.5558   0.00640   0.00215  -0.0542  0.6761  0.9669  -0.9866   0.0000   0.0000   0.0000   0.3444
   2.800   0.5818   0.00656   0.00219  -0.0550  0.6468  0.9736  -1.0460   0.0000   0.0000   0.0000   0.3413
   2.900   0.5960   0.00666   0.00223  -0.0557  0.6299  0.9759  -1.0810   0.0000   0.0000   0.0000   0.3402
   3.000   0.6098   0.00677   0.00226  -0.0564  0.6120  0.9785  -1.1156   0.0000   0.0000   0.0000   0.3390
   3.100   0.6235   0.00689   0.00230  -0.0570  0.5931  0.9813  -1.1503   0.0000   0.0000   0.0000   0.3379
   3.200   0.6368   0.00702   0.00235  -0.0575  0.5730  0.9844  -1.1847   0.0000   0.0000   0.0000   0.3367
   3.300   0.6495   0.00717   0.00240  -0.0579  0.5515  0.9879  -1.2184   0.0000   0.0000   0.0000   0.3355
   3.400   0.6622   0.00733   0.00246  -0.0584  0.5292  0.9910  -1.2524   0.0000   0.0000   0.0000   0.3344
   3.500   0.6764   0.00748   0.00252  -0.0592  0.5067  0.9935  -1.2888   0.0000   0.0000   0.0000   0.3336
   3.600   0.6906   0.00764   0.00258  -0.0600  0.4857  0.9963  -1.3253   0.0000   0.0000   0.0000   0.3329
   3.700   0.7046   0.00782   0.00265  -0.0608  0.4633  0.9988  -1.3619   0.0000   0.0000   0.0000   0.3322
   3.800   0.7136   0.00798   0.00271  -0.0605  0.4432  1.0000  -1.3911   0.0000   0.0000   0.0000   0.3307
   3.900   0.7176   0.00811   0.00276  -0.0592  0.4260  1.0000  -1.4130   0.0000   0.0000   0.0000   0.3283
   4.000   0.7228   0.00824   0.00282  -0.0581  0.4090  1.0000  -1.4368   0.0000   0.0000   0.0000   0.3261
   4.100   0.7285   0.00839   0.00288  -0.0571  0.3920  1.0000  -1.4613   0.0000   0.0000   0.0000   0.3240
   4.300   0.7414   0.00869   0.00303  -0.0554  0.3585  1.0000  -1.5133   0.0000   0.0000   0.0000   0.3201
   4.400   0.7484   0.00884   0.00313  -0.0546  0.3440  1.0000  -1.5402   0.0000   0.0000   0.0000   0.3183
   4.500   0.7554   0.00900   0.00322  -0.0539  0.3291  1.0000  -1.5674   0.0000   0.0000   0.0000   0.3166
   4.600   0.7632   0.00913   0.00330  -0.0532  0.3156  1.0000  -1.5958   0.0000   0.0000   0.0000   0.3149
   4.700   0.7705   0.00930   0.00339  -0.0525  0.3017  1.0000  -1.6267   0.0000   0.0000   0.0000   0.3133
   4.800   0.7786   0.00943   0.00347  -0.0520  0.2886  1.0000  -1.6673   0.0000   0.0000   0.0000   0.3118
   4.900   0.7863   0.00959   0.00357  -0.0514  0.2759  1.0000  -1.7072   0.0000   0.0000   0.0000   0.3103
   5.000   0.7945   0.00973   0.00366  -0.0509  0.2634  1.0000  -1.7485   0.0000   0.0000   0.0000   0.3088
   5.100   0.8025   0.00990   0.00376  -0.0503  0.2518  1.0000  -1.7896   0.0000   0.0000   0.0000   0.3074
   5.200   0.8109   0.01003   0.00386  -0.0498  0.2404  1.0000  -1.8319   0.0000   0.0000   0.0000   0.3061
   5.300   0.8189   0.01020   0.00397  -0.0493  0.2294  1.0000  -1.8736   0.0000   0.0000   0.0000   0.3047
   5.400   0.8276   0.01033   0.00406  -0.0489  0.2194  1.0000  -1.9171   0.0000   0.0000   0.0000   0.3035
   5.500   0.8356   0.01052   0.00418  -0.0484  0.2086  1.0000  -1.9651   0.0000   0.0000   0.0000   0.3022
   5.600   0.8445   0.01063   0.00428  -0.0480  0.2004  1.0000  -2.0168   0.0000   0.0000   0.0000   0.3010
   5.700   0.8528   0.01080   0.00439  -0.0475  0.1910  1.0000  -2.0672   0.0000   0.0000   0.0000   0.2998
   5.800   0.8613   0.01096   0.00453  -0.0470  0.1825  1.0000  -2.1182   0.0000   0.0000   0.0000   0.2987
   5.900   0.8702   0.01108   0.00464  -0.0467  0.1751  1.0000  -2.1709   0.0000   0.0000   0.0000   0.2976
   6.000   0.8784   0.01126   0.00477  -0.0462  0.1668  1.0000  -2.2220   0.0000   0.0000   0.0000   0.2964
   6.100   0.8870   0.01141   0.00489  -0.0458  0.1593  1.0000  -2.2745   0.0000   0.0000   0.0000   0.2953
   6.200   0.8959   0.01154   0.00500  -0.0454  0.1528  1.0000  -2.3285   0.0000   0.0000   0.0000   0.2943
   6.300   0.9041   0.01173   0.00514  -0.0449  0.1450  1.0000  -2.3807   0.0000   0.0000   0.0000   0.2932
   6.400   0.9125   0.01190   0.00528  -0.0445  0.1377  1.0000  -2.4336   0.0000   0.0000   0.0000   0.2921
   6.500   0.9216   0.01201   0.00539  -0.0441  0.1326  1.0000  -2.4893   0.0000   0.0000   0.0000   0.2912
   6.600   0.9301   0.01218   0.00552  -0.0437  0.1265  1.0000  -2.5436   0.0000   0.0000   0.0000   0.2902
   6.700   0.9379   0.01239   0.00568  -0.0432  0.1193  1.0000  -2.5960   0.0000   0.0000   0.0000   0.2891
   6.800   0.9468   0.01253   0.00582  -0.0428  0.1150  1.0000  -2.6516   0.0000   0.0000   0.0000   0.2882
   6.900   0.9558   0.01264   0.00594  -0.0424  0.1115  1.0000  -2.7086   0.0000   0.0000   0.0000   0.2873
   7.000   0.9645   0.01279   0.00607  -0.0420  0.1072  1.0000  -2.7647   0.0000   0.0000   0.0000   0.2863
   7.100   0.9725   0.01299   0.00623  -0.0416  0.1023  1.0000  -2.8192   0.0000   0.0000   0.0000   0.2854
   7.200   0.9797   0.01325   0.00646  -0.0409  0.0960  1.0000  -2.8698   0.0000   0.0000   0.0000   0.2843
   7.300   0.9889   0.01336   0.00660  -0.0406  0.0938  1.0000  -2.9291   0.0000   0.0000   0.0000   0.2834
   7.400   0.9981   0.01346   0.00673  -0.0403  0.0915  1.0000  -2.9976   0.0000   0.0000   0.0000   0.2826
   7.500   1.0069   0.01360   0.00687  -0.0399  0.0885  1.0000  -3.0648   0.0000   0.0000   0.0000   0.2818
   7.600   1.0152   0.01376   0.00702  -0.0395  0.0853  1.0000  -3.1311   0.0000   0.0000   0.0000   0.2809
   7.700   1.0231   0.01396   0.00719  -0.0389  0.0819  1.0000  -3.1956   0.0000   0.0000   0.0000   0.2800
   7.800   1.0303   0.01422   0.00743  -0.0383  0.0777  1.0000  -3.2561   0.0000   0.0000   0.0000   0.2790
   7.900   1.0372   0.01449   0.00770  -0.0376  0.0745  1.0000  -3.3155   0.0000   0.0000   0.0000   0.2779
   8.000   1.0464   0.01458   0.00782  -0.0373  0.0736  1.0000  -3.3868   0.0000   0.0000   0.0000   0.2772
   8.100   1.0553   0.01469   0.00796  -0.0369  0.0724  1.0000  -3.4573   0.0000   0.0000   0.0000   0.2765
   8.200   1.0640   0.01482   0.00812  -0.0365  0.0708  1.0000  -3.5273   0.0000   0.0000   0.0000   0.2757
   8.300   1.0724   0.01497   0.00828  -0.0361  0.0690  1.0000  -3.5967   0.0000   0.0000   0.0000   0.2749
   8.400   1.0805   0.01514   0.00845  -0.0356  0.0670  1.0000  -3.6652   0.0000   0.0000   0.0000   0.2741
   8.500   1.0883   0.01533   0.00863  -0.0351  0.0649  1.0000  -3.7328   0.0000   0.0000   0.0000   0.2732
   8.600   1.0956   0.01555   0.00884  -0.0345  0.0626  1.0000  -3.7984   0.0000   0.0000   0.0000   0.2723
   8.700   1.1019   0.01585   0.00913  -0.0338  0.0598  1.0000  -3.8614   0.0000   0.0000   0.0000   0.2713
   8.800   1.1062   0.01628   0.00959  -0.0326  0.0566  1.0000  -3.9172   0.0000   0.0000   0.0000   0.2701
   8.900   1.1142   0.01644   0.00978  -0.0321  0.0556  1.0000  -3.9960   0.0000   0.0000   0.0000   0.2693
   9.000   1.1231   0.01653   0.00989  -0.0318  0.0549  1.0000  -4.0818   0.0000   0.0000   0.0000   0.2686
   9.100   1.1317   0.01663   0.01004  -0.0314  0.0538  1.0000  -4.1661   0.0000   0.0000   0.0000   0.2679
   9.200   1.1398   0.01676   0.01019  -0.0309  0.0524  1.0000  -4.2484   0.0000   0.0000   0.0000   0.2672
   9.300   1.1475   0.01690   0.01035  -0.0304  0.0507  1.0000  -4.3294   0.0000   0.0000   0.0000   0.2664
   9.400   1.1546   0.01707   0.01053  -0.0298  0.0489  1.0000  -4.4080   0.0000   0.0000   0.0000   0.2656
   9.500   1.1610   0.01728   0.01073  -0.0290  0.0470  1.0000  -4.4837   0.0000   0.0000   0.0000   0.2647
   9.600   1.1664   0.01755   0.01099  -0.0281  0.0450  1.0000  -4.5533   0.0000   0.0000   0.0000   0.2636
   9.700   1.1695   0.01797   0.01141  -0.0268  0.0425  1.0000  -4.6066   0.0000   0.0000   0.0000   0.2623
   9.800   1.1682   0.01869   0.01219  -0.0248  0.0399  1.0000  -4.6304   0.0000   0.0000   0.0000   0.2605
   9.900   1.1757   0.01882   0.01235  -0.0242  0.0395  1.0000  -4.7124   0.0000   0.0000   0.0000   0.2597
  10.000   1.1832   0.01896   0.01250  -0.0237  0.0391  1.0000  -4.8062   0.0000   0.0000   0.0000   0.2590
  10.100   1.1904   0.01912   0.01269  -0.0231  0.0384  1.0000  -4.9306   0.0000   0.0000   0.0000   0.2582
  10.200   1.1972   0.01930   0.01291  -0.0224  0.0377  1.0000  -5.0528   0.0000   0.0000   0.0000   0.2574
  10.300   1.2036   0.01952   0.01315  -0.0217  0.0369  1.0000  -5.1730   0.0000   0.0000   0.0000   0.2566
  10.400   1.2097   0.01974   0.01341  -0.0210  0.0360  1.0000  -5.2918   0.0000   0.0000   0.0000   0.2557
  10.500   1.2156   0.01998   0.01367  -0.0202  0.0352  1.0000  -5.4107   0.0000   0.0000   0.0000   0.2549
  10.600   1.2215   0.02022   0.01393  -0.0195  0.0343  1.0000  -5.5309   0.0000   0.0000   0.0000   0.2540
  10.700   1.2274   0.02046   0.01419  -0.0187  0.0335  1.0000  -5.6521   0.0000   0.0000   0.0000   0.2532
  10.800   1.2329   0.02072   0.01446  -0.0179  0.0326  1.0000  -5.7719   0.0000   0.0000   0.0000   0.2524
  10.900   1.2380   0.02102   0.01476  -0.0171  0.0318  1.0000  -5.8889   0.0000   0.0000   0.0000   0.2515
  11.000   1.2423   0.02137   0.01513  -0.0162  0.0308  1.0000  -5.9981   0.0000   0.0000   0.0000   0.2506
  11.100   1.2451   0.02183   0.01561  -0.0151  0.0299  1.0000  -6.0937   0.0000   0.0000   0.0000   0.2495
  11.200   1.2463   0.02241   0.01624  -0.0137  0.0289  1.0000  -6.1732   0.0000   0.0000   0.0000   0.2483
  11.300   1.2459   0.02316   0.01705  -0.0122  0.0280  1.0000  -6.2357   0.0000   0.0000   0.0000   0.2469
  11.400   1.2439   0.02413   0.01812  -0.0105  0.0273  1.0000  -6.2791   0.0000   0.0000   0.0000   0.2454
  11.500   1.2489   0.02445   0.01849  -0.0098  0.0271  1.0000  -6.4005   0.0000   0.0000   0.0000   0.2447
  11.600   1.2544   0.02472   0.01881  -0.0091  0.0269  1.0000  -6.5256   0.0000   0.0000   0.0000   0.2439
  11.700   1.2597   0.02502   0.01914  -0.0085  0.0267  1.0000  -6.6492   0.0000   0.0000   0.0000   0.2432
  11.800   1.2648   0.02533   0.01949  -0.0078  0.0265  1.0000  -6.7717   0.0000   0.0000   0.0000   0.2425
  11.900   1.2696   0.02567   0.01987  -0.0071  0.0263  1.0000  -6.8923   0.0000   0.0000   0.0000   0.2417
  12.000   1.2742   0.02602   0.02026  -0.0063  0.0260  1.0000  -7.0115   0.0000   0.0000   0.0000   0.2410
  12.100   1.2787   0.02637   0.02066  -0.0056  0.0257  1.0000  -7.1309   0.0000   0.0000   0.0000   0.2402
  12.200   1.2831   0.02673   0.02106  -0.0049  0.0253  1.0000  -7.2508   0.0000   0.0000   0.0000   0.2395
  12.300   1.2875   0.02709   0.02146  -0.0042  0.0249  1.0000  -7.3718   0.0000   0.0000   0.0000   0.2388
  12.400   1.2918   0.02746   0.02186  -0.0035  0.0245  1.0000  -7.4927   0.0000   0.0000   0.0000   0.2381
  12.500   1.2959   0.02783   0.02226  -0.0029  0.0241  1.0000  -7.6138   0.0000   0.0000   0.0000   0.2374
  12.600   1.3000   0.02820   0.02266  -0.0022  0.0236  1.0000  -7.7362   0.0000   0.0000   0.0000   0.2367
  12.700   1.3042   0.02856   0.02306  -0.0016  0.0232  1.0000  -7.8608   0.0000   0.0000   0.0000   0.2361
  12.800   1.3083   0.02892   0.02344  -0.0010  0.0227  1.0000  -7.9873   0.0000   0.0000   0.0000   0.2354
  12.900   1.3124   0.02929   0.02382  -0.0004  0.0223  1.0000  -8.1137   0.0000   0.0000   0.0000   0.2348
  13.000   1.3163   0.02965   0.02421   0.0002  0.0218  1.0000  -8.2415   0.0000   0.0000   0.0000   0.2342
  13.100   1.3200   0.03005   0.02462   0.0008  0.0214  1.0000  -8.3668   0.0000   0.0000   0.0000   0.2335
  13.200   1.3229   0.03052   0.02510   0.0014  0.0209  1.0000  -8.4847   0.0000   0.0000   0.0000   0.2329
  13.300   1.3245   0.03111   0.02571   0.0021  0.0204  1.0000  -8.5882   0.0000   0.0000   0.0000   0.2322
  13.400   1.3248   0.03183   0.02646   0.0030  0.0199  1.0000  -8.6751   0.0000   0.0000   0.0000   0.2314
  13.500   1.3235   0.03271   0.02738   0.0038  0.0194  1.0000  -8.7435   0.0000   0.0000   0.0000   0.2305
  13.600   1.3205   0.03379   0.02852   0.0048  0.0190  1.0000  -8.7889   0.0000   0.0000   0.0000   0.2296
  13.700   1.3158   0.03507   0.02989   0.0058  0.0185  1.0000  -8.8124   0.0000   0.0000   0.0000   0.2287
  13.800   1.3093   0.03659   0.03152   0.0069  0.0182  1.0000  -8.8122   0.0000   0.0000   0.0000   0.2277
  13.900   1.3107   0.03728   0.03226   0.0073  0.0180  1.0000  -8.9120   0.0000   0.0000   0.0000   0.2271
  14.000   1.3162   0.03755   0.03254   0.0076  0.0178  1.0000  -9.0638   0.0000   0.0000   0.0000   0.2268
  14.100   1.3208   0.03794   0.03295   0.0078  0.0176  1.0000  -9.2040   0.0000   0.0000   0.0000   0.2264
  14.200   1.3243   0.03843   0.03348   0.0081  0.0175  1.0000  -9.3326   0.0000   0.0000   0.0000   0.2260
  14.300   1.3272   0.03901   0.03411   0.0084  0.0173  1.0000  -9.4518   0.0000   0.0000   0.0000   0.2256
  14.400   1.3293   0.03969   0.03482   0.0088  0.0171  1.0000  -9.5622   0.0000   0.0000   0.0000   0.2252
  14.500   1.3306   0.04045   0.03563   0.0091  0.0169  1.0000  -9.6634   0.0000   0.0000   0.0000   0.2247
  14.600   1.3316   0.04126   0.03650   0.0094  0.0168  1.0000  -9.7590   0.0000   0.0000   0.0000   0.2243
  14.700   1.3321   0.04213   0.03741   0.0096  0.0166  1.0000  -9.8507   0.0000   0.0000   0.0000   0.2239
  14.800   1.3323   0.04304   0.03838   0.0099  0.0164  1.0000  -9.9377   0.0000   0.0000   0.0000   0.2235
  14.900   1.3325   0.04398   0.03937   0.0101  0.0162  1.0000  -10.0249   0.0000   0.0000   0.0000   0.2232
  15.000   1.3324   0.04497   0.04041   0.0102  0.0160  1.0000  -10.1085   0.0000   0.0000   0.0000   0.2229


