xflr5 v6.61

 Calculated polar for: SG6041

 1 1 Reynolds number fixed          Mach number fixed         

 xtrf =   1.000 (top)        1.000 (bottom)
 Mach =   0.000     Re =     0.200 e 6     Ncrit =   9.000

  alpha     CL        CD       CDp       Cm    Top Xtr Bot Xtr   Cpmin    Chinge    XCp    
 ------- -------- --------- --------- -------- ------- ------- -------- --------- ---------
 -10.000  -0.4199   0.10365   0.09996  -0.0354  1.0000  0.0411  -1.8541   0.0000   0.0000   0.0000   0.1575
  -9.900  -0.4187   0.10247   0.09878  -0.0354  1.0000  0.0414  -1.8363   0.0000   0.0000   0.0000   0.1573
  -9.800  -0.4177   0.10127   0.09760  -0.0355  1.0000  0.0418  -1.8216   0.0000   0.0000   0.0000   0.1572
  -9.700  -0.4169   0.10007   0.09641  -0.0355  1.0000  0.0422  -1.8092   0.0000   0.0000   0.0000   0.1570
  -9.600  -0.4163   0.09886   0.09521  -0.0356  1.0000  0.0425  -1.7993   0.0000   0.0000   0.0000   0.1567
  -9.500  -0.4160   0.09763   0.09400  -0.0357  1.0000  0.0429  -1.7917   0.0000   0.0000   0.0000   0.1565
  -9.400  -0.4160   0.09640   0.09278  -0.0359  1.0000  0.0432  -1.7862   0.0000   0.0000   0.0000   0.1562
  -9.300  -0.4162   0.09516   0.09156  -0.0360  1.0000  0.0436  -1.7827   0.0000   0.0000   0.0000   0.1560
  -9.200  -0.4166   0.09391   0.09033  -0.0362  1.0000  0.0440  -1.7811   0.0000   0.0000   0.0000   0.1558
  -9.100  -0.4173   0.09265   0.08909  -0.0364  1.0000  0.0444  -1.7813   0.0000   0.0000   0.0000   0.1556
  -9.000  -0.4183   0.09138   0.08784  -0.0366  1.0000  0.0448  -1.7833   0.0000   0.0000   0.0000   0.1555
  -8.900  -0.4195   0.09011   0.08658  -0.0368  1.0000  0.0451  -1.7870   0.0000   0.0000   0.0000   0.1555
  -8.800  -0.4211   0.08883   0.08533  -0.0370  1.0000  0.0455  -1.7926   0.0000   0.0000   0.0000   0.1555
  -8.700  -0.4231   0.08755   0.08407  -0.0372  1.0000  0.0459  -1.8001   0.0000   0.0000   0.0000   0.1555
  -8.600  -0.4255   0.08627   0.08281  -0.0373  1.0000  0.0462  -1.8096   0.0000   0.0000   0.0000   0.1558
  -8.500  -0.4283   0.08499   0.08156  -0.0375  1.0000  0.0465  -1.8209   0.0000   0.0000   0.0000   0.1561
  -8.400  -0.4317   0.08372   0.08031  -0.0376  1.0000  0.0469  -1.8344   0.0000   0.0000   0.0000   0.1567
  -8.300  -0.4357   0.08247   0.07909  -0.0377  1.0000  0.0471  -1.8502   0.0000   0.0000   0.0000   0.1575
  -8.200  -0.4406   0.08123   0.07788  -0.0377  1.0000  0.0474  -1.8687   0.0000   0.0000   0.0000   0.1585
  -8.100  -0.4465   0.08004   0.07672  -0.0376  1.0000  0.0475  -1.8901   0.0000   0.0000   0.0000   0.1600
  -8.000  -0.4538   0.07889   0.07561  -0.0374  1.0000  0.0476  -1.9152   0.0000   0.0000   0.0000   0.1620
  -7.900  -0.4628   0.07783   0.07458  -0.0371  1.0000  0.0476  -1.9447   0.0000   0.0000   0.0000   0.1646
  -7.800  -0.4740   0.07688   0.07367  -0.0364  1.0000  0.0474  -1.9790   0.0000   0.0000   0.0000   0.1681
  -7.700  -0.4857   0.07603   0.07284  -0.0355  1.0000  0.0473  -2.0127   0.0000   0.0000   0.0000   0.1720
  -7.600  -0.4945   0.07503   0.07185  -0.0347  1.0000  0.0473  -2.0392   0.0000   0.0000   0.0000   0.1751
  -7.500  -0.5020   0.07391   0.07074  -0.0341  1.0000  0.0474  -2.0630   0.0000   0.0000   0.0000   0.1774
  -7.400  -0.5089   0.07278   0.06960  -0.0335  1.0000  0.0476  -2.0851   0.0000   0.0000   0.0000   0.1797
  -7.300  -0.5152   0.07162   0.06844  -0.0329  1.0000  0.0477  -2.1057   0.0000   0.0000   0.0000   0.1818
  -7.200  -0.5210   0.07044   0.06726  -0.0324  1.0000  0.0480  -2.1249   0.0000   0.0000   0.0000   0.1836
  -7.100  -0.5262   0.06925   0.06605  -0.0318  1.0000  0.0483  -2.1428   0.0000   0.0000   0.0000   0.1854
  -7.000  -0.5307   0.06803   0.06481  -0.0313  1.0000  0.0486  -2.1595   0.0000   0.0000   0.0000   0.1869
  -6.900  -0.5345   0.06679   0.06355  -0.0308  1.0000  0.0490  -2.1742   0.0000   0.0000   0.0000   0.1883
  -6.800  -0.5376   0.06555   0.06227  -0.0304  1.0000  0.0495  -2.1882   0.0000   0.0000   0.0000   0.1896
  -6.700  -0.5401   0.06430   0.06099  -0.0299  1.0000  0.0500  -2.2019   0.0000   0.0000   0.0000   0.1907
  -6.600  -0.5417   0.06308   0.05971  -0.0295  1.0000  0.0507  -2.2165   0.0000   0.0000   0.0000   0.1917
  -6.500  -0.5424   0.06199   0.05854  -0.0291  1.0000  0.0517  -2.2343   0.0000   0.0000   0.0000   0.1925
  -6.400  -0.5398   0.06189   0.05830  -0.0286  1.0000  0.0533  -2.2489   0.0000   0.0000   0.0000   0.1932
  -6.300  -0.5365   0.06225   0.05853  -0.0278  1.0000  0.0542  -2.2362   0.0000   0.0000   0.0000   0.1944
  -6.200  -0.5353   0.06165   0.05784  -0.0271  1.0000  0.0544  -2.2279   0.0000   0.0000   0.0000   0.1957
  -6.100  -0.5342   0.06081   0.05691  -0.0264  1.0000  0.0546  -2.2248   0.0000   0.0000   0.0000   0.1970
  -6.000  -0.5328   0.05985   0.05588  -0.0257  1.0000  0.0546  -2.2270   0.0000   0.0000   0.0000   0.1981
  -5.900  -0.5237   0.05839   0.05429  -0.0267  0.9986  0.0547  -2.2245   0.0000   0.0000   0.0000   0.1954
  -5.800  -0.5144   0.05685   0.05263  -0.0277  0.9970  0.0548  -2.2210   0.0000   0.0000   0.0000   0.1926
  -5.700  -0.5230   0.04841   0.04405  -0.0299  0.9952  0.0571  -2.3569   0.0000   0.0000   0.0000   0.1892
  -5.600  -0.5140   0.04659   0.04223  -0.0307  0.9939  0.0580  -2.3211   0.0000   0.0000   0.0000   0.1866
  -5.500  -0.5037   0.04517   0.04081  -0.0315  0.9926  0.0588  -2.2770   0.0000   0.0000   0.0000   0.1838
  -5.400  -0.4926   0.04389   0.03950  -0.0325  0.9914  0.0596  -2.2344   0.0000   0.0000   0.0000   0.1805
  -5.300  -0.4818   0.04269   0.03825  -0.0332  0.9901  0.0606  -2.1967   0.0000   0.0000   0.0000   0.1775
  -5.200  -0.4730   0.04156   0.03706  -0.0335  0.9882  0.0615  -2.1672   0.0000   0.0000   0.0000   0.1757
  -5.100  -0.4635   0.04042   0.03584  -0.0338  0.9864  0.0626  -2.1415   0.0000   0.0000   0.0000   0.1735
  -5.000  -0.4536   0.03927   0.03459  -0.0342  0.9845  0.0636  -2.1203   0.0000   0.0000   0.0000   0.1711
  -4.900  -0.4393   0.03323   0.02767  -0.0325  0.9831  0.0354  -2.5975   0.0000   0.0000   0.0000   0.1721
  -4.800  -0.4310   0.03079   0.02500  -0.0326  0.9816  0.0330  -2.6526   0.0000   0.0000   0.0000   0.1704
  -4.700  -0.4211   0.02801   0.02183  -0.0322  0.9804  0.0297  -2.7915   0.0000   0.0000   0.0000   0.1694
  -4.600  -0.4088   0.02568   0.01895  -0.0315  0.9794  0.0268  -2.9766   0.0000   0.0000   0.0000   0.1686
  -4.500  -0.3953   0.02502   0.01813  -0.0318  0.9780  0.0263  -2.9601   0.0000   0.0000   0.0000   0.1652
  -4.400  -0.3816   0.02438   0.01734  -0.0322  0.9768  0.0260  -2.9309   0.0000   0.0000   0.0000   0.1611
  -4.300  -0.3677   0.02368   0.01650  -0.0327  0.9756  0.0259  -2.9040   0.0000   0.0000   0.0000   0.1566
  -4.200  -0.3538   0.02287   0.01557  -0.0332  0.9746  0.0258  -2.8838   0.0000   0.0000   0.0000   0.1517
  -4.100  -0.3400   0.02197   0.01455  -0.0336  0.9737  0.0260  -2.8720   0.0000   0.0000   0.0000   0.1465
  -4.000  -0.3262   0.02104   0.01350  -0.0341  0.9729  0.0263  -2.8650   0.0000   0.0000   0.0000   0.1408
  -3.900  -0.3123   0.02020   0.01259  -0.0346  0.9721  0.0270  -2.8509   0.0000   0.0000   0.0000   0.1344
  -3.800  -0.2995   0.01961   0.01198  -0.0350  0.9710  0.0279  -2.8186   0.0000   0.0000   0.0000   0.1285
  -3.700  -0.2925   0.01920   0.01156  -0.0342  0.9684  0.0289  -2.7847   0.0000   0.0000   0.0000   0.1285
  -3.600  -0.2827   0.01887   0.01122  -0.0339  0.9660  0.0302  -2.7435   0.0000   0.0000   0.0000   0.1253
  -3.500  -0.2715   0.01855   0.01089  -0.0339  0.9638  0.0321  -2.7056   0.0000   0.0000   0.0000   0.1203
  -3.400  -0.2593   0.01824   0.01055  -0.0340  0.9617  0.0346  -2.6728   0.0000   0.0000   0.0000   0.1139
  -3.300  -0.2458   0.01818   0.01045  -0.0345  0.9598  0.0374  -2.6139   0.0000   0.0000   0.0000   0.1050
  -3.200  -0.2345   0.01746   0.00979  -0.0347  0.9581  0.0445  -2.5809   0.0000   0.0000   0.0000   0.0971
  -3.100  -0.2202   0.01736   0.00970  -0.0353  0.9564  0.0518  -2.5133   0.0000   0.0000   0.0000   0.0845
  -3.000  -0.2074   0.01676   0.00911  -0.0357  0.9549  0.0614  -2.4882   0.0000   0.0000   0.0000   0.0728
  -2.900  -0.1921   0.01666   0.00901  -0.0365  0.9535  0.0741  -2.4040   0.0000   0.0000   0.0000   0.0545
  -2.800  -0.1781   0.01617   0.00859  -0.0372  0.9523  0.0891  -2.3376   0.0000   0.0000   0.0000   0.0356
  -2.700  -0.1627   0.01593   0.00835  -0.0381  0.9511  0.1039  -2.2461   0.0000   0.0000   0.0000   0.0099
  -2.600  -0.1471   0.01572   0.00821  -0.0391  0.9500  0.1232  -2.1452   0.0000   0.0000   0.0000  -0.0220
  -2.500  -0.1324   0.01534   0.00805  -0.0401  0.9490  0.1607  -2.0495   0.0000   0.0000   0.0000  -0.0594
  -2.400  -0.1318   0.01496   0.00789  -0.0382  0.9446  0.2026  -2.0075   0.0000   0.0000   0.0000  -0.0461
  -2.300  -0.1275   0.01416   0.00775  -0.0374  0.9413  0.3491  -1.9502   0.0000   0.0000   0.0000  -0.0493
  -2.200  -0.1249   0.01329   0.00781  -0.0359  0.9383  0.5599  -1.8943   0.0000   0.0000   0.0000  -0.0438
  -2.100  -0.1177   0.01303   0.00799  -0.0347  0.9358  0.6815  -1.8176   0.0000   0.0000   0.0000  -0.0509
  -2.000  -0.1068   0.01298   0.00806  -0.0342  0.9338  0.7333  -1.7265   0.0000   0.0000   0.0000  -0.0769
  -1.900  -0.0945   0.01295   0.00811  -0.0341  0.9320  0.7658  -1.6300   0.0000   0.0000   0.0000  -0.1177
  -1.800  -0.0808   0.01295   0.00813  -0.0342  0.9304  0.7893  -1.5292   0.0000   0.0000   0.0000  -0.1816
  -1.700  -0.0664   0.01295   0.00812  -0.0346  0.9290  0.8078  -1.4270   0.0000   0.0000   0.0000  -0.2796
  -1.600  -0.0515   0.01295   0.00812  -0.0350  0.9277  0.8244  -1.3238   0.0000   0.0000   0.0000  -0.4407
  -1.500  -0.0364   0.01295   0.00812  -0.0354  0.9266  0.8398  -1.2185   0.0000   0.0000   0.0000  -0.7376
  -1.400  -0.0209   0.01297   0.00813  -0.0359  0.9255  0.8554  -1.1172   0.0000   0.0000   0.0000  -1.4951
  -1.300  -0.0253   0.01296   0.00814  -0.0327  0.9190  0.8649  -1.0923   0.0000   0.0000   0.0000  -1.0594
  -1.200  -0.0164   0.01295   0.00812  -0.0320  0.9157  0.8779  -1.0180   0.0000   0.0000   0.0000  -1.7282
  -1.100  -0.0036   0.01294   0.00812  -0.0319  0.9134  0.8896  -0.9305   0.0000   0.0000   0.0000  -8.7299
  -1.000   0.0098   0.01292   0.00808  -0.0321  0.9113  0.9020  -0.8429   0.0000   0.0000   0.0000   3.5658
  -0.900   0.0272   0.01293   0.00808  -0.0330  0.9100  0.9129  -0.7529   0.0000   0.0000   0.0000   1.4710
  -0.800   0.0429   0.01292   0.00804  -0.0336  0.9084  0.9243  -0.6806   0.0000   0.0000   0.0000   1.0391
  -0.700   0.0679   0.01299   0.00810  -0.0359  0.9080  0.9360  -0.5846   0.0000   0.0000   0.0000   0.7824
  -0.600   0.0946   0.01312   0.00821  -0.0385  0.9080  0.9513  -0.4862   0.0000   0.0000   0.0000   0.6586
  -0.500   0.1336   0.01332   0.00836  -0.0435  0.9094  0.9617  -0.4006   0.0000   0.0000   0.0000   0.5763
  -0.400   0.1608   0.01335   0.00835  -0.0465  0.9091  0.9666  -0.4015   0.0000   0.0000   0.0000   0.5394
  -0.300   0.1830   0.01331   0.00827  -0.0486  0.9082  0.9700  -0.4187   0.0000   0.0000   0.0000   0.5153
  -0.200   0.2066   0.01324   0.00817  -0.0510  0.9074  0.9717  -0.4375   0.0000   0.0000   0.0000   0.4965
  -0.100   0.2308   0.01313   0.00803  -0.0535  0.9067  0.9725  -0.4570   0.0000   0.0000   0.0000   0.4814
   0.000   0.2546   0.01302   0.00789  -0.0560  0.9059  0.9732  -0.4771   0.0000   0.0000   0.0000   0.4693
   0.100   0.2777   0.01289   0.00774  -0.0583  0.9051  0.9738  -0.4978   0.0000   0.0000   0.0000   0.4593
   0.200   0.3002   0.01274   0.00757  -0.0605  0.9041  0.9745  -0.5184   0.0000   0.0000   0.0000   0.4507
   0.300   0.3224   0.01258   0.00739  -0.0627  0.9030  0.9750  -0.5409   0.0000   0.0000   0.0000   0.4433
   0.400   0.3445   0.01242   0.00721  -0.0648  0.9019  0.9755  -0.5637   0.0000   0.0000   0.0000   0.4368
   0.500   0.3574   0.01238   0.00718  -0.0652  0.8968  0.9789  -0.5806   0.0000   0.0000   0.0000   0.4312
   0.600   0.3739   0.01228   0.00707  -0.0663  0.8929  0.9813  -0.6018   0.0000   0.0000   0.0000   0.4259
   0.700   0.3920   0.01214   0.00692  -0.0676  0.8898  0.9831  -0.6246   0.0000   0.0000   0.0000   0.4211
   0.800   0.4106   0.01197   0.00675  -0.0690  0.8870  0.9846  -0.6480   0.0000   0.0000   0.0000   0.4165
   0.900   0.4293   0.01179   0.00656  -0.0704  0.8844  0.9859  -0.6717   0.0000   0.0000   0.0000   0.4124
   1.000   0.4485   0.01160   0.00636  -0.0719  0.8819  0.9870  -0.6960   0.0000   0.0000   0.0000   0.4085
   1.100   0.4679   0.01140   0.00615  -0.0733  0.8794  0.9879  -0.7207   0.0000   0.0000   0.0000   0.4049
   1.200   0.4832   0.01129   0.00606  -0.0741  0.8753  0.9899  -0.7423   0.0000   0.0000   0.0000   0.4014
   1.300   0.4978   0.01119   0.00597  -0.0748  0.8694  0.9925  -0.7661   0.0000   0.0000   0.0000   0.3983
   1.400   0.5149   0.01104   0.00581  -0.0759  0.8646  0.9944  -0.7926   0.0000   0.0000   0.0000   0.3954
   1.500   0.5326   0.01086   0.00563  -0.0771  0.8603  0.9960  -0.8200   0.0000   0.0000   0.0000   0.3927
   1.600   0.5504   0.01069   0.00544  -0.0783  0.8564  0.9974  -0.8525   0.0000   0.0000   0.0000   0.3901
   1.700   0.5674   0.01055   0.00530  -0.0794  0.8521  0.9990  -0.8841   0.0000   0.0000   0.0000   0.3877
   1.800   0.5741   0.01052   0.00528  -0.0786  0.8446  1.0000  -0.9036   0.0000   0.0000   0.0000   0.3846
   1.900   0.5815   0.01042   0.00517  -0.0778  0.8381  1.0000  -0.9244   0.0000   0.0000   0.0000   0.3814
   2.000   0.5918   0.01029   0.00503  -0.0775  0.8327  1.0000  -0.9487   0.0000   0.0000   0.0000   0.3785
   2.100   0.6000   0.01021   0.00493  -0.0769  0.8268  1.0000  -0.9706   0.0000   0.0000   0.0000   0.3755
   2.200   0.6031   0.01017   0.00491  -0.0754  0.8186  1.0000  -0.9863   0.0000   0.0000   0.0000   0.3722
   2.300   0.6108   0.01007   0.00480  -0.0746  0.8115  1.0000  -1.0077   0.0000   0.0000   0.0000   0.3693
   2.400   0.6220   0.00995   0.00464  -0.0744  0.8055  1.0000  -1.0339   0.0000   0.0000   0.0000   0.3667
   2.500   0.6238   0.00994   0.00465  -0.0726  0.7963  1.0000  -1.0481   0.0000   0.0000   0.0000   0.3635
   2.600   0.6305   0.00988   0.00457  -0.0717  0.7882  1.0000  -1.0711   0.0000   0.0000   0.0000   0.3606
   2.700   0.6404   0.00979   0.00448  -0.0712  0.7812  1.0000  -1.1003   0.0000   0.0000   0.0000   0.3581
   2.800   0.6434   0.00979   0.00449  -0.0697  0.7714  1.0000  -1.1193   0.0000   0.0000   0.0000   0.3551
   2.900   0.6510   0.00973   0.00441  -0.0689  0.7626  1.0000  -1.1454   0.0000   0.0000   0.0000   0.3525
   3.000   0.6583   0.00971   0.00436  -0.0680  0.7540  1.0000  -1.1710   0.0000   0.0000   0.0000   0.3499
   3.100   0.6642   0.00970   0.00434  -0.0669  0.7442  1.0000  -1.1947   0.0000   0.0000   0.0000   0.3473
   3.200   0.6733   0.00967   0.00426  -0.0663  0.7351  1.0000  -1.2234   0.0000   0.0000   0.0000   0.3450
   3.300   0.6789   0.00968   0.00426  -0.0652  0.7240  1.0000  -1.2470   0.0000   0.0000   0.0000   0.3425
   3.400   0.6873   0.00968   0.00421  -0.0645  0.7127  1.0000  -1.2749   0.0000   0.0000   0.0000   0.3402
   3.500   0.6939   0.00970   0.00420  -0.0635  0.6999  1.0000  -1.3002   0.0000   0.0000   0.0000   0.3378
   3.600   0.7023   0.00974   0.00416  -0.0628  0.6866  1.0000  -1.3285   0.0000   0.0000   0.0000   0.3356
   3.700   0.7089   0.00978   0.00417  -0.0618  0.6714  1.0000  -1.3540   0.0000   0.0000   0.0000   0.3333
   3.800   0.7164   0.00985   0.00416  -0.0610  0.6561  1.0000  -1.3812   0.0000   0.0000   0.0000   0.3311
   3.900   0.7238   0.00993   0.00416  -0.0601  0.6395  1.0000  -1.4084   0.0000   0.0000   0.0000   0.3289
   4.000   0.7306   0.01002   0.00419  -0.0592  0.6219  1.0000  -1.4346   0.0000   0.0000   0.0000   0.3268
   4.100   0.7375   0.01013   0.00422  -0.0583  0.6040  1.0000  -1.4612   0.0000   0.0000   0.0000   0.3247
   4.200   0.7442   0.01027   0.00425  -0.0573  0.5851  1.0000  -1.4876   0.0000   0.0000   0.0000   0.3226
   4.300   0.7506   0.01042   0.00434  -0.0563  0.5652  1.0000  -1.5135   0.0000   0.0000   0.0000   0.3205
   4.400   0.7568   0.01058   0.00440  -0.0553  0.5445  1.0000  -1.5394   0.0000   0.0000   0.0000   0.3184
   4.500   0.7631   0.01075   0.00448  -0.0543  0.5237  1.0000  -1.5653   0.0000   0.0000   0.0000   0.3164
   4.600   0.7694   0.01093   0.00456  -0.0533  0.5030  1.0000  -1.5937   0.0000   0.0000   0.0000   0.3145
   4.700   0.7756   0.01112   0.00465  -0.0523  0.4828  1.0000  -1.6246   0.0000   0.0000   0.0000   0.3126
   4.800   0.7819   0.01132   0.00475  -0.0514  0.4632  1.0000  -1.6608   0.0000   0.0000   0.0000   0.3107
   4.900   0.7879   0.01154   0.00486  -0.0504  0.4435  1.0000  -1.6970   0.0000   0.0000   0.0000   0.3089
   5.100   0.8002   0.01198   0.00511  -0.0485  0.4028  1.0000  -1.7703   0.0000   0.0000   0.0000   0.3054
   5.200   0.8065   0.01221   0.00524  -0.0477  0.3828  1.0000  -1.8076   0.0000   0.0000   0.0000   0.3037
   5.300   0.8128   0.01244   0.00538  -0.0468  0.3633  1.0000  -1.8448   0.0000   0.0000   0.0000   0.3021
   5.400   0.8189   0.01269   0.00553  -0.0459  0.3446  1.0000  -1.8821   0.0000   0.0000   0.0000   0.3005
   5.500   0.8249   0.01297   0.00568  -0.0450  0.3264  1.0000  -1.9190   0.0000   0.0000   0.0000   0.2989
   5.600   0.8318   0.01319   0.00584  -0.0443  0.3084  1.0000  -1.9584   0.0000   0.0000   0.0000   0.2975
   5.700   0.8386   0.01343   0.00601  -0.0436  0.2921  1.0000  -2.0036   0.0000   0.0000   0.0000   0.2961
   5.800   0.8448   0.01371   0.00618  -0.0428  0.2772  1.0000  -2.0477   0.0000   0.0000   0.0000   0.2946
   5.900   0.8522   0.01394   0.00639  -0.0421  0.2627  1.0000  -2.0946   0.0000   0.0000   0.0000   0.2934
   6.000   0.8590   0.01419   0.00658  -0.0414  0.2501  1.0000  -2.1405   0.0000   0.0000   0.0000   0.2920
   6.100   0.8661   0.01444   0.00677  -0.0407  0.2376  1.0000  -2.1873   0.0000   0.0000   0.0000   0.2908
   6.200   0.8732   0.01470   0.00697  -0.0401  0.2265  1.0000  -2.2341   0.0000   0.0000   0.0000   0.2895
   6.300   0.8805   0.01494   0.00717  -0.0395  0.2156  1.0000  -2.2818   0.0000   0.0000   0.0000   0.2883
   6.400   0.8871   0.01525   0.00739  -0.0387  0.2060  1.0000  -2.3276   0.0000   0.0000   0.0000   0.2871
   6.500   0.8952   0.01545   0.00760  -0.0382  0.1967  1.0000  -2.3775   0.0000   0.0000   0.0000   0.2860
   6.600   0.9017   0.01576   0.00783  -0.0375  0.1881  1.0000  -2.4237   0.0000   0.0000   0.0000   0.2848
   6.700   0.9092   0.01603   0.00808  -0.0369  0.1805  1.0000  -2.4718   0.0000   0.0000   0.0000   0.2837
   6.800   0.9172   0.01625   0.00830  -0.0364  0.1729  1.0000  -2.5221   0.0000   0.0000   0.0000   0.2827
   6.900   0.9237   0.01657   0.00854  -0.0357  0.1658  1.0000  -2.5687   0.0000   0.0000   0.0000   0.2815
   7.000   0.9308   0.01689   0.00883  -0.0350  0.1591  1.0000  -2.6158   0.0000   0.0000   0.0000   0.2804
   7.100   0.9392   0.01707   0.00905  -0.0346  0.1530  1.0000  -2.6680   0.0000   0.0000   0.0000   0.2795
   7.200   0.9465   0.01732   0.00927  -0.0340  0.1470  1.0000  -2.7180   0.0000   0.0000   0.0000   0.2785
   7.300   0.9524   0.01775   0.00961  -0.0332  0.1407  1.0000  -2.7626   0.0000   0.0000   0.0000   0.2773
   7.400   0.9603   0.01801   0.00990  -0.0327  0.1361  1.0000  -2.8127   0.0000   0.0000   0.0000   0.2764
   7.500   0.9686   0.01820   0.01013  -0.0322  0.1316  1.0000  -2.8661   0.0000   0.0000   0.0000   0.2755
   7.600   0.9764   0.01842   0.01040  -0.0317  0.1271  1.0000  -2.9261   0.0000   0.0000   0.0000   0.2746
   7.700   0.9833   0.01872   0.01066  -0.0311  0.1226  1.0000  -2.9837   0.0000   0.0000   0.0000   0.2736
   7.800   0.9890   0.01933   0.01118  -0.0303  0.1172  1.0000  -3.0333   0.0000   0.0000   0.0000   0.2725
   7.900   0.9973   0.01950   0.01141  -0.0299  0.1144  1.0000  -3.0956   0.0000   0.0000   0.0000   0.2717
   8.000   1.0055   0.01968   0.01164  -0.0294  0.1111  1.0000  -3.1578   0.0000   0.0000   0.0000   0.2709
   8.100   1.0133   0.01990   0.01190  -0.0289  0.1078  1.0000  -3.2189   0.0000   0.0000   0.0000   0.2700
   8.200   1.0208   0.02015   0.01217  -0.0284  0.1047  1.0000  -3.2793   0.0000   0.0000   0.0000   0.2692
   8.300   1.0277   0.02047   0.01247  -0.0277  0.1016  1.0000  -3.3379   0.0000   0.0000   0.0000   0.2683
   8.400   1.0342   0.02098   0.01294  -0.0271  0.0982  1.0000  -3.3922   0.0000   0.0000   0.0000   0.2674
   8.500   1.0419   0.02170   0.01364  -0.0267  0.0946  1.0000  -3.4458   0.0000   0.0000   0.0000   0.2667
   8.600   1.0497   0.02184   0.01385  -0.0262  0.0929  1.0000  -3.5081   0.0000   0.0000   0.0000   0.2658
   8.700   1.0574   0.02203   0.01411  -0.0256  0.0905  1.0000  -3.5696   0.0000   0.0000   0.0000   0.2650
   8.800   1.0647   0.02225   0.01437  -0.0251  0.0879  1.0000  -3.6307   0.0000   0.0000   0.0000   0.2642
   8.900   1.0717   0.02247   0.01462  -0.0244  0.0852  1.0000  -3.6916   0.0000   0.0000   0.0000   0.2633
   9.000   1.0782   0.02271   0.01488  -0.0238  0.0826  1.0000  -3.7570   0.0000   0.0000   0.0000   0.2625
   9.100   1.0842   0.02305   0.01520  -0.0231  0.0800  1.0000  -3.8233   0.0000   0.0000   0.0000   0.2616
   9.200   1.0909   0.02381   0.01592  -0.0226  0.0767  1.0000  -3.8846   0.0000   0.0000   0.0000   0.2609
   9.300   1.0997   0.02467   0.01681  -0.0224  0.0741  1.0000  -3.9479   0.0000   0.0000   0.0000   0.2604
   9.400   1.1066   0.02488   0.01714  -0.0218  0.0728  1.0000  -4.0159   0.0000   0.0000   0.0000   0.2596
   9.500   1.1133   0.02516   0.01749  -0.0211  0.0711  1.0000  -4.0815   0.0000   0.0000   0.0000   0.2587
   9.600   1.1199   0.02549   0.01789  -0.0204  0.0692  1.0000  -4.1459   0.0000   0.0000   0.0000   0.2579
   9.700   1.1263   0.02585   0.01830  -0.0197  0.0673  1.0000  -4.2098   0.0000   0.0000   0.0000   0.2570
   9.800   1.1324   0.02621   0.01870  -0.0190  0.0655  1.0000  -4.2734   0.0000   0.0000   0.0000   0.2561
   9.900   1.1382   0.02658   0.01909  -0.0182  0.0638  1.0000  -4.3369   0.0000   0.0000   0.0000   0.2553
  10.000   1.1437   0.02697   0.01950  -0.0175  0.0622  1.0000  -4.3999   0.0000   0.0000   0.0000   0.2544
  10.100   1.1491   0.02745   0.01998  -0.0167  0.0606  1.0000  -4.4621   0.0000   0.0000   0.0000   0.2535
  10.200   1.1565   0.02839   0.02093  -0.0165  0.0584  1.0000  -4.5353   0.0000   0.0000   0.0000   0.2531
  10.300   1.1677   0.03042   0.02308  -0.0172  0.0557  1.0000  -4.6166   0.0000   0.0000   0.0000   0.2534
  10.400   1.1723   0.03058   0.02332  -0.0161  0.0551  1.0000  -4.7017   0.0000   0.0000   0.0000   0.2524
  10.500   1.1768   0.03083   0.02363  -0.0152  0.0543  1.0000  -4.7855   0.0000   0.0000   0.0000   0.2513
  10.600   1.1814   0.03116   0.02404  -0.0142  0.0533  1.0000  -4.8727   0.0000   0.0000   0.0000   0.2504
  10.700   1.1862   0.03159   0.02454  -0.0134  0.0523  1.0000  -4.9695   0.0000   0.0000   0.0000   0.2494
  10.800   1.1911   0.03213   0.02515  -0.0125  0.0514  1.0000  -5.0645   0.0000   0.0000   0.0000   0.2486
  10.900   1.1958   0.03271   0.02581  -0.0117  0.0504  1.0000  -5.1575   0.0000   0.0000   0.0000   0.2477
  11.000   1.2003   0.03330   0.02649  -0.0109  0.0495  1.0000  -5.2494   0.0000   0.0000   0.0000   0.2468
  11.100   1.2044   0.03391   0.02716  -0.0100  0.0487  1.0000  -5.3397   0.0000   0.0000   0.0000   0.2460
  11.200   1.2081   0.03451   0.02784  -0.0091  0.0479  1.0000  -5.4287   0.0000   0.0000   0.0000   0.2451
  11.300   1.2116   0.03512   0.02852  -0.0082  0.0472  1.0000  -5.5167   0.0000   0.0000   0.0000   0.2441
  11.400   1.2148   0.03573   0.02919  -0.0073  0.0465  1.0000  -5.6039   0.0000   0.0000   0.0000   0.2432
  11.500   1.2178   0.03635   0.02986  -0.0064  0.0458  1.0000  -5.6904   0.0000   0.0000   0.0000   0.2423
  11.600   1.2205   0.03699   0.03056  -0.0055  0.0452  1.0000  -5.7759   0.0000   0.0000   0.0000   0.2414
  11.700   1.2230   0.03764   0.03127  -0.0046  0.0446  1.0000  -5.8598   0.0000   0.0000   0.0000   0.2405
  11.800   1.2252   0.03832   0.03200  -0.0037  0.0440  1.0000  -5.9426   0.0000   0.0000   0.0000   0.2396
  11.900   1.2271   0.03906   0.03278  -0.0028  0.0434  1.0000  -6.0230   0.0000   0.0000   0.0000   0.2387
  12.000   1.2284   0.03991   0.03374  -0.0019  0.0428  1.0000  -6.0998   0.0000   0.0000   0.0000   0.2379
  12.100   1.2287   0.04099   0.03489  -0.0010  0.0421  1.0000  -6.1608   0.0000   0.0000   0.0000   0.2370
  12.200   1.2271   0.04238   0.03638   0.0000  0.0415  1.0000  -6.1997   0.0000   0.0000   0.0000   0.2360
  12.300   1.2231   0.04409   0.03822   0.0012  0.0410  1.0000  -6.2115   0.0000   0.0000   0.0000   0.2350
  12.400   1.2168   0.04602   0.04030   0.0024  0.0405  1.0000  -6.1994   0.0000   0.0000   0.0000   0.2339
  12.500   1.2086   0.04801   0.04245   0.0037  0.0402  1.0000  -6.1718   0.0000   0.0000   0.0000   0.2327
  12.600   1.1993   0.05000   0.04458   0.0049  0.0400  1.0000  -6.1365   0.0000   0.0000   0.0000   0.2315
  12.700   1.1914   0.05165   0.04633   0.0060  0.0398  1.0000  -6.1195   0.0000   0.0000   0.0000   0.2304
  12.800   1.1896   0.05222   0.04697   0.0068  0.0396  1.0000  -6.1747   0.0000   0.0000   0.0000   0.2295
  12.900   1.1873   0.05293   0.04776   0.0076  0.0394  1.0000  -6.2227   0.0000   0.0000   0.0000   0.2287
  13.000   1.1843   0.05380   0.04871   0.0083  0.0392  1.0000  -6.2624   0.0000   0.0000   0.0000   0.2279
  13.100   1.1807   0.05481   0.04980   0.0090  0.0391  1.0000  -6.2939   0.0000   0.0000   0.0000   0.2272
  13.200   1.1763   0.05596   0.05104   0.0095  0.0389  1.0000  -6.3166   0.0000   0.0000   0.0000   0.2265
  13.300   1.1712   0.05725   0.05242   0.0100  0.0387  1.0000  -6.3298   0.0000   0.0000   0.0000   0.2259
  13.400   1.1653   0.05868   0.05393   0.0103  0.0386  1.0000  -6.3345   0.0000   0.0000   0.0000   0.2254
  13.500   1.1588   0.06025   0.05559   0.0105  0.0385  1.0000  -6.3307   0.0000   0.0000   0.0000   0.2250
  13.600   1.1515   0.06196   0.05739   0.0106  0.0384  1.0000  -6.3187   0.0000   0.0000   0.0000   0.2246
  13.700   1.1437   0.06379   0.05931   0.0106  0.0384  1.0000  -6.3000   0.0000   0.0000   0.0000   0.2245
  13.800   1.1354   0.06575   0.06135   0.0104  0.0384  1.0000  -6.2740   0.0000   0.0000   0.0000   0.2244
  13.900   1.1264   0.06785   0.06354   0.0099  0.0383  1.0000  -6.2404   0.0000   0.0000   0.0000   0.2245
  14.000   1.1169   0.07012   0.06589   0.0093  0.0383  1.0000  -6.1985   0.0000   0.0000   0.0000   0.2248
  14.100   1.1067   0.07258   0.06844   0.0085  0.0384  1.0000  -6.1476   0.0000   0.0000   0.0000   0.2253
  14.200   1.0959   0.07526   0.07120   0.0074  0.0384  1.0000  -6.0863   0.0000   0.0000   0.0000   0.2260
  14.300   1.0842   0.07819   0.07421   0.0060  0.0385  1.0000  -6.0128   0.0000   0.0000   0.0000   0.2271
  14.400   1.0716   0.08142   0.07752   0.0043  0.0386  1.0000  -5.9245   0.0000   0.0000   0.0000   0.2284
  14.500   1.0577   0.08503   0.08120   0.0023  0.0388  1.0000  -5.8170   0.0000   0.0000   0.0000   0.2301
  14.600   1.0415   0.08929   0.08553  -0.0003  0.0390  1.0000  -5.6749   0.0000   0.0000   0.0000   0.2323
  14.700   1.0182   0.09528   0.09156  -0.0039  0.0395  1.0000  -5.4334   0.0000   0.0000   0.0000   0.2358
  14.900   0.8435   0.14975   0.14610  -0.0368  0.0514  1.0000  -2.7689   0.0000   0.0000   0.0000   0.2778
  15.000   0.8406   0.15282   0.14916  -0.0381  0.0520  1.0000  -2.7184   0.0000   0.0000   0.0000   0.2795


