xflr5 v6.61

 Calculated polar for: SG6041

 1 1 Reynolds number fixed          Mach number fixed         

 xtrf =   1.000 (top)        1.000 (bottom)
 Mach =   0.000     Re =     0.275 e 6     Ncrit =   9.000

  alpha     CL        CD       CDp       Cm    Top Xtr Bot Xtr   Cpmin    Chinge    XCp    
 ------- -------- --------- --------- -------- ------- ------- -------- --------- ---------
 -10.000  -0.4142   0.10307   0.09989  -0.0338  1.0000  0.0317  -1.8278   0.0000   0.0000   0.0000   0.1602
  -9.900  -0.4142   0.10172   0.09854  -0.0341  1.0000  0.0321  -1.8330   0.0000   0.0000   0.0000   0.1594
  -9.800  -0.4144   0.10035   0.09719  -0.0345  1.0000  0.0324  -1.8397   0.0000   0.0000   0.0000   0.1586
  -9.700  -0.4147   0.09898   0.09583  -0.0349  1.0000  0.0327  -1.8480   0.0000   0.0000   0.0000   0.1578
  -9.600  -0.4152   0.09759   0.09446  -0.0353  1.0000  0.0331  -1.8578   0.0000   0.0000   0.0000   0.1570
  -9.500  -0.4159   0.09620   0.09308  -0.0358  1.0000  0.0334  -1.8696   0.0000   0.0000   0.0000   0.1563
  -9.400  -0.4168   0.09480   0.09170  -0.0362  1.0000  0.0338  -1.8837   0.0000   0.0000   0.0000   0.1555
  -9.300  -0.4180   0.09340   0.09031  -0.0367  1.0000  0.0341  -1.8999   0.0000   0.0000   0.0000   0.1546
  -9.200  -0.4193   0.09198   0.08891  -0.0373  1.0000  0.0345  -1.9188   0.0000   0.0000   0.0000   0.1538
  -9.100  -0.4210   0.09055   0.08750  -0.0379  1.0000  0.0349  -1.9411   0.0000   0.0000   0.0000   0.1529
  -9.000  -0.4228   0.08914   0.08611  -0.0385  1.0000  0.0352  -1.9654   0.0000   0.0000   0.0000   0.1519
  -8.900  -0.4249   0.08773   0.08473  -0.0392  1.0000  0.0356  -1.9925   0.0000   0.0000   0.0000   0.1509
  -8.800  -0.4275   0.08634   0.08336  -0.0399  1.0000  0.0359  -2.0229   0.0000   0.0000   0.0000   0.1498
  -8.700  -0.4307   0.08494   0.08198  -0.0407  1.0000  0.0362  -2.0561   0.0000   0.0000   0.0000   0.1489
  -8.600  -0.4337   0.08364   0.08071  -0.0413  1.0000  0.0365  -2.0824   0.0000   0.0000   0.0000   0.1482
  -8.500  -0.4376   0.08233   0.07942  -0.0419  1.0000  0.0366  -2.1095   0.0000   0.0000   0.0000   0.1479
  -8.400  -0.4431   0.08096   0.07807  -0.0424  1.0000  0.0367  -2.1407   0.0000   0.0000   0.0000   0.1482
  -8.300  -0.4504   0.07958   0.07672  -0.0427  1.0000  0.0367  -2.1759   0.0000   0.0000   0.0000   0.1493
  -8.200  -0.4596   0.07837   0.07553  -0.0425  1.0000  0.0366  -2.2109   0.0000   0.0000   0.0000   0.1519
  -8.100  -0.4702   0.07744   0.07462  -0.0415  1.0000  0.0366  -2.2420   0.0000   0.0000   0.0000   0.1562
  -8.000  -0.4814   0.07667   0.07386  -0.0401  1.0000  0.0364  -2.2704   0.0000   0.0000   0.0000   0.1615
  -7.900  -0.4917   0.07591   0.07312  -0.0385  1.0000  0.0364  -2.2968   0.0000   0.0000   0.0000   0.1665
  -7.800  -0.4993   0.07499   0.07220  -0.0376  1.0000  0.0364  -2.3222   0.0000   0.0000   0.0000   0.1697
  -7.700  -0.5059   0.07408   0.07128  -0.0368  1.0000  0.0366  -2.3458   0.0000   0.0000   0.0000   0.1724
  -7.600  -0.5118   0.07320   0.07038  -0.0360  1.0000  0.0367  -2.3673   0.0000   0.0000   0.0000   0.1750
  -7.500  -0.5170   0.07233   0.06949  -0.0352  1.0000  0.0368  -2.3864   0.0000   0.0000   0.0000   0.1774
  -7.400  -0.5217   0.07146   0.06860  -0.0344  1.0000  0.0370  -2.4034   0.0000   0.0000   0.0000   0.1796
  -7.300  -0.5259   0.07057   0.06768  -0.0336  1.0000  0.0371  -2.4182   0.0000   0.0000   0.0000   0.1817
  -7.200  -0.5296   0.06965   0.06672  -0.0328  1.0000  0.0372  -2.4310   0.0000   0.0000   0.0000   0.1837
  -7.100  -0.5329   0.06869   0.06572  -0.0320  1.0000  0.0373  -2.4419   0.0000   0.0000   0.0000   0.1856
  -7.000  -0.5259   0.06686   0.06380  -0.0339  0.9984  0.0374  -2.4432   0.0000   0.0000   0.0000   0.1813
  -6.900  -0.5189   0.06501   0.06185  -0.0355  0.9967  0.0375  -2.4411   0.0000   0.0000   0.0000   0.1772
  -6.800  -0.5117   0.06316   0.05991  -0.0371  0.9948  0.0375  -2.4356   0.0000   0.0000   0.0000   0.1733
  -6.700  -0.5040   0.06132   0.05796  -0.0385  0.9931  0.0376  -2.4267   0.0000   0.0000   0.0000   0.1692
  -6.600  -0.4957   0.05948   0.05601  -0.0400  0.9917  0.0376  -2.4143   0.0000   0.0000   0.0000   0.1650
  -6.500  -0.5043   0.05251   0.04885  -0.0422  0.9892  0.0386  -2.5998   0.0000   0.0000   0.0000   0.1621
  -6.400  -0.5040   0.04924   0.04551  -0.0428  0.9870  0.0394  -2.6158   0.0000   0.0000   0.0000   0.1608
  -6.300  -0.4985   0.04742   0.04364  -0.0433  0.9851  0.0400  -2.5785   0.0000   0.0000   0.0000   0.1589
  -6.200  -0.4905   0.04613   0.04234  -0.0437  0.9835  0.0405  -2.5142   0.0000   0.0000   0.0000   0.1565
  -6.100  -0.4818   0.04494   0.04112  -0.0443  0.9819  0.0410  -2.4671   0.0000   0.0000   0.0000   0.1539
  -6.000  -0.4726   0.04378   0.03993  -0.0449  0.9803  0.0415  -2.4217   0.0000   0.0000   0.0000   0.1508
  -5.900  -0.4628   0.04262   0.03872  -0.0455  0.9788  0.0422  -2.3791   0.0000   0.0000   0.0000   0.1474
  -5.800  -0.4524   0.04146   0.03749  -0.0463  0.9774  0.0429  -2.3402   0.0000   0.0000   0.0000   0.1435
  -5.700  -0.4416   0.04027   0.03622  -0.0470  0.9761  0.0436  -2.3057   0.0000   0.0000   0.0000   0.1393
  -5.600  -0.4304   0.03905   0.03492  -0.0478  0.9750  0.0445  -2.2760   0.0000   0.0000   0.0000   0.1346
  -5.500  -0.4187   0.03783   0.03359  -0.0486  0.9740  0.0454  -2.2507   0.0000   0.0000   0.0000   0.1297
  -5.200  -0.3871   0.02791   0.02239  -0.0471  0.9704  0.0241  -2.8827   0.0000   0.0000   0.0000   0.1234
  -5.100  -0.3836   0.02631   0.02063  -0.0459  0.9675  0.0233  -2.9198   0.0000   0.0000   0.0000   0.1255
  -5.000  -0.3760   0.02486   0.01899  -0.0453  0.9654  0.0225  -2.9490   0.0000   0.0000   0.0000   0.1245
  -4.900  -0.3667   0.02351   0.01744  -0.0450  0.9636  0.0218  -2.9785   0.0000   0.0000   0.0000   0.1224
  -4.800  -0.3562   0.02225   0.01599  -0.0447  0.9621  0.0211  -3.0069   0.0000   0.0000   0.0000   0.1194
  -4.700  -0.3450   0.02113   0.01465  -0.0446  0.9607  0.0206  -3.0281   0.0000   0.0000   0.0000   0.1157
  -4.600  -0.3332   0.02019   0.01356  -0.0446  0.9595  0.0203  -3.0330   0.0000   0.0000   0.0000   0.1111
  -4.500  -0.3209   0.01942   0.01267  -0.0447  0.9583  0.0201  -3.0193   0.0000   0.0000   0.0000   0.1056
  -4.400  -0.3082   0.01876   0.01193  -0.0449  0.9572  0.0202  -2.9930   0.0000   0.0000   0.0000   0.0991
  -4.300  -0.2951   0.01818   0.01127  -0.0452  0.9562  0.0203  -2.9586   0.0000   0.0000   0.0000   0.0915
  -4.200  -0.2817   0.01766   0.01070  -0.0456  0.9551  0.0206  -2.9184   0.0000   0.0000   0.0000   0.0828
  -4.100  -0.2681   0.01720   0.01018  -0.0460  0.9541  0.0211  -2.8750   0.0000   0.0000   0.0000   0.0728
  -4.000  -0.2542   0.01677   0.00971  -0.0465  0.9532  0.0218  -2.8306   0.0000   0.0000   0.0000   0.0613
  -3.900  -0.2400   0.01637   0.00928  -0.0471  0.9523  0.0228  -2.7873   0.0000   0.0000   0.0000   0.0480
  -3.800  -0.2254   0.01604   0.00891  -0.0477  0.9514  0.0241  -2.7435   0.0000   0.0000   0.0000   0.0324
  -3.700  -0.2108   0.01571   0.00855  -0.0484  0.9506  0.0256  -2.7046   0.0000   0.0000   0.0000   0.0144
  -3.600  -0.1977   0.01502   0.00786  -0.0488  0.9499  0.0303  -2.6984   0.0000   0.0000   0.0000  -0.0034
  -3.500  -0.1820   0.01485   0.00769  -0.0497  0.9492  0.0356  -2.6349   0.0000   0.0000   0.0000  -0.0298
  -3.400  -0.1798   0.01480   0.00764  -0.0479  0.9451  0.0382  -2.5909   0.0000   0.0000   0.0000  -0.0230
  -3.300  -0.1728   0.01440   0.00731  -0.0472  0.9422  0.0482  -2.5500   0.0000   0.0000   0.0000  -0.0296
  -3.200  -0.1616   0.01427   0.00717  -0.0472  0.9400  0.0569  -2.4774   0.0000   0.0000   0.0000  -0.0487
  -3.100  -0.1501   0.01398   0.00694  -0.0473  0.9382  0.0711  -2.4002   0.0000   0.0000   0.0000  -0.0722
  -3.000  -0.1375   0.01374   0.00670  -0.0477  0.9365  0.0826  -2.3143   0.0000   0.0000   0.0000  -0.1040
  -2.900  -0.1243   0.01353   0.00653  -0.0481  0.9350  0.0945  -2.2182   0.0000   0.0000   0.0000  -0.1449
  -2.800  -0.1108   0.01328   0.00634  -0.0487  0.9336  0.1102  -2.1214   0.0000   0.0000   0.0000  -0.1976
  -2.700  -0.0971   0.01300   0.00618  -0.0493  0.9323  0.1356  -2.0219   0.0000   0.0000   0.0000  -0.2664
  -2.500  -0.0731   0.01183   0.00586  -0.0504  0.9300  0.3347  -1.8366   0.0000   0.0000   0.0000  -0.4510
  -2.400  -0.0639   0.01102   0.00578  -0.0505  0.9289  0.5131  -1.7536   0.0000   0.0000   0.0000  -0.5510
  -2.300  -0.0533   0.01062   0.00587  -0.0502  0.9279  0.6396  -1.6624   0.0000   0.0000   0.0000  -0.7062
  -2.200  -0.0392   0.01050   0.00590  -0.0505  0.9271  0.6957  -1.5589   0.0000   0.0000   0.0000  -1.0548
  -2.100  -0.0239   0.01044   0.00589  -0.0511  0.9264  0.7277  -1.4518   0.0000   0.0000   0.0000  -1.9137
  -2.000  -0.0082   0.01039   0.00587  -0.0518  0.9258  0.7491  -1.3442   0.0000   0.0000   0.0000  -6.1834
  -1.900  -0.0132   0.01043   0.00593  -0.0484  0.9191  0.7570  -1.3199   0.0000   0.0000   0.0000  -3.4564
  -1.800  -0.0033   0.01040   0.00590  -0.0480  0.9164  0.7706  -1.2348   0.0000   0.0000   0.0000  -14.5481
  -1.700   0.0091   0.01036   0.00585  -0.0480  0.9144  0.7829  -1.1450   0.0000   0.0000   0.0000   5.6034
  -1.600   0.0225   0.01031   0.00581  -0.0483  0.9127  0.7945  -1.0525   0.0000   0.0000   0.0000   2.4155
  -1.500   0.0368   0.01026   0.00576  -0.0487  0.9113  0.8062  -0.9587   0.0000   0.0000   0.0000   1.5848
  -1.400   0.0511   0.01020   0.00572  -0.0490  0.9100  0.8179  -0.8666   0.0000   0.0000   0.0000   1.2179
  -1.300   0.0656   0.01015   0.00565  -0.0495  0.9088  0.8289  -0.7760   0.0000   0.0000   0.0000   1.0104
  -1.200   0.0800   0.01008   0.00560  -0.0499  0.9076  0.8379  -0.6994   0.0000   0.0000   0.0000   0.8772
  -1.100   0.0945   0.01003   0.00554  -0.0503  0.9064  0.8476  -0.6310   0.0000   0.0000   0.0000   0.7851
  -1.000   0.1091   0.00996   0.00547  -0.0507  0.9053  0.8557  -0.5635   0.0000   0.0000   0.0000   0.7170
  -0.900   0.1238   0.00990   0.00541  -0.0511  0.9042  0.8636  -0.4970   0.0000   0.0000   0.0000   0.6645
  -0.800   0.1382   0.00985   0.00535  -0.0515  0.9031  0.8735  -0.4423   0.0000   0.0000   0.0000   0.6237
  -0.700   0.1523   0.00980   0.00531  -0.0516  0.9020  0.8836  -0.4060   0.0000   0.0000   0.0000   0.5897
  -0.600   0.1529   0.00985   0.00538  -0.0492  0.8967  0.8940  -0.3927   0.0000   0.0000   0.0000   0.5722
  -0.500   0.1601   0.00984   0.00538  -0.0479  0.8930  0.9050  -0.4002   0.0000   0.0000   0.0000   0.5498
  -0.400   0.1707   0.00982   0.00538  -0.0473  0.8903  0.9159  -0.4097   0.0000   0.0000   0.0000   0.5273
  -0.300   0.1818   0.00977   0.00533  -0.0470  0.8879  0.9249  -0.4207   0.0000   0.0000   0.0000   0.5081
  -0.200   0.1990   0.00973   0.00527  -0.0478  0.8863  0.9301  -0.4359   0.0000   0.0000   0.0000   0.4900
  -0.100   0.2159   0.00968   0.00521  -0.0487  0.8846  0.9343  -0.4509   0.0000   0.0000   0.0000   0.4752
   0.000   0.2329   0.00961   0.00512  -0.0497  0.8830  0.9378  -0.4661   0.0000   0.0000   0.0000   0.4628
   0.100   0.2497   0.00953   0.00502  -0.0507  0.8813  0.9409  -0.4825   0.0000   0.0000   0.0000   0.4521
   0.200   0.2660   0.00946   0.00492  -0.0516  0.8795  0.9438  -0.4989   0.0000   0.0000   0.0000   0.4428
   0.300   0.2808   0.00940   0.00483  -0.0522  0.8774  0.9469  -0.5144   0.0000   0.0000   0.0000   0.4346
   0.400   0.2925   0.00939   0.00482  -0.0522  0.8729  0.9500  -0.5286   0.0000   0.0000   0.0000   0.4274
   0.500   0.3076   0.00935   0.00478  -0.0530  0.8692  0.9520  -0.5461   0.0000   0.0000   0.0000   0.4209
   0.600   0.3239   0.00929   0.00471  -0.0539  0.8659  0.9537  -0.5646   0.0000   0.0000   0.0000   0.4151
   0.700   0.3407   0.00922   0.00462  -0.0550  0.8628  0.9554  -0.5861   0.0000   0.0000   0.0000   0.4099
   0.800   0.3579   0.00914   0.00452  -0.0561  0.8599  0.9569  -0.6080   0.0000   0.0000   0.0000   0.4051
   0.900   0.3750   0.00906   0.00442  -0.0572  0.8570  0.9585  -0.6302   0.0000   0.0000   0.0000   0.4008
   1.000   0.3923   0.00898   0.00432  -0.0583  0.8540  0.9598  -0.6525   0.0000   0.0000   0.0000   0.3968
   1.100   0.4056   0.00896   0.00430  -0.0587  0.8490  0.9626  -0.6715   0.0000   0.0000   0.0000   0.3929
   1.200   0.4191   0.00892   0.00426  -0.0591  0.8438  0.9654  -0.6908   0.0000   0.0000   0.0000   0.3892
   1.300   0.4328   0.00887   0.00420  -0.0596  0.8391  0.9681  -0.7104   0.0000   0.0000   0.0000   0.3856
   1.500   0.4636   0.00874   0.00404  -0.0611  0.8310  0.9719  -0.7558   0.0000   0.0000   0.0000   0.3796
   1.600   0.4800   0.00871   0.00400  -0.0622  0.8260  0.9733  -0.7815   0.0000   0.0000   0.0000   0.3772
   1.700   0.4957   0.00867   0.00397  -0.0631  0.8197  0.9751  -0.8065   0.0000   0.0000   0.0000   0.3750
   1.800   0.5115   0.00861   0.00390  -0.0640  0.8136  0.9768  -0.8354   0.0000   0.0000   0.0000   0.3728
   1.900   0.5277   0.00855   0.00381  -0.0650  0.8082  0.9784  -0.8661   0.0000   0.0000   0.0000   0.3706
   2.000   0.5430   0.00851   0.00377  -0.0658  0.8018  0.9807  -0.8957   0.0000   0.0000   0.0000   0.3686
   2.100   0.5572   0.00848   0.00374  -0.0664  0.7935  0.9835  -0.9243   0.0000   0.0000   0.0000   0.3666
   2.200   0.5720   0.00844   0.00367  -0.0671  0.7858  0.9859  -0.9540   0.0000   0.0000   0.0000   0.3646
   2.300   0.5862   0.00841   0.00362  -0.0677  0.7782  0.9885  -0.9831   0.0000   0.0000   0.0000   0.3627
   2.400   0.6002   0.00840   0.00360  -0.0683  0.7688  0.9910  -1.0120   0.0000   0.0000   0.0000   0.3609
   2.500   0.6162   0.00835   0.00352  -0.0693  0.7600  0.9928  -1.0436   0.0000   0.0000   0.0000   0.3595
   2.600   0.6315   0.00833   0.00353  -0.0702  0.7506  0.9952  -1.0796   0.0000   0.0000   0.0000   0.3581
   2.700   0.6468   0.00832   0.00349  -0.0711  0.7406  0.9975  -1.1162   0.0000   0.0000   0.0000   0.3568
   2.800   0.6621   0.00832   0.00345  -0.0720  0.7300  0.9995  -1.1532   0.0000   0.0000   0.0000   0.3555
   2.900   0.6700   0.00831   0.00341  -0.0714  0.7182  1.0000  -1.1797   0.0000   0.0000   0.0000   0.3532
   3.000   0.6759   0.00832   0.00337  -0.0703  0.7069  1.0000  -1.2035   0.0000   0.0000   0.0000   0.3507
   3.100   0.6810   0.00834   0.00334  -0.0691  0.6938  1.0000  -1.2261   0.0000   0.0000   0.0000   0.3481
   3.200   0.6863   0.00837   0.00332  -0.0680  0.6808  1.0000  -1.2492   0.0000   0.0000   0.0000   0.3455
   3.300   0.6913   0.00842   0.00330  -0.0668  0.6664  1.0000  -1.2720   0.0000   0.0000   0.0000   0.3430
   3.400   0.6963   0.00847   0.00330  -0.0656  0.6518  1.0000  -1.2950   0.0000   0.0000   0.0000   0.3404
   3.500   0.7014   0.00855   0.00330  -0.0643  0.6366  1.0000  -1.3182   0.0000   0.0000   0.0000   0.3379
   3.600   0.7067   0.00864   0.00331  -0.0632  0.6202  1.0000  -1.3416   0.0000   0.0000   0.0000   0.3355
   3.700   0.7121   0.00873   0.00334  -0.0620  0.6035  1.0000  -1.3655   0.0000   0.0000   0.0000   0.3331
   3.800   0.7175   0.00886   0.00337  -0.0609  0.5859  1.0000  -1.3895   0.0000   0.0000   0.0000   0.3308
   4.000   0.7287   0.00913   0.00346  -0.0586  0.5478  1.0000  -1.4382   0.0000   0.0000   0.0000   0.3262
   4.100   0.7345   0.00928   0.00352  -0.0576  0.5288  1.0000  -1.4631   0.0000   0.0000   0.0000   0.3241
   4.200   0.7404   0.00944   0.00359  -0.0565  0.5104  1.0000  -1.4881   0.0000   0.0000   0.0000   0.3219
   4.300   0.7462   0.00962   0.00370  -0.0555  0.4924  1.0000  -1.5132   0.0000   0.0000   0.0000   0.3199
   4.400   0.7524   0.00978   0.00378  -0.0546  0.4735  1.0000  -1.5388   0.0000   0.0000   0.0000   0.3179
   4.500   0.7588   0.00996   0.00387  -0.0536  0.4545  1.0000  -1.5649   0.0000   0.0000   0.0000   0.3160
   4.600   0.7651   0.01014   0.00397  -0.0527  0.4354  1.0000  -1.5912   0.0000   0.0000   0.0000   0.3141
   4.700   0.7713   0.01034   0.00407  -0.0518  0.4163  1.0000  -1.6221   0.0000   0.0000   0.0000   0.3123
   4.800   0.7775   0.01056   0.00418  -0.0509  0.3970  1.0000  -1.6579   0.0000   0.0000   0.0000   0.3105
   4.900   0.7841   0.01076   0.00429  -0.0501  0.3774  1.0000  -1.6953   0.0000   0.0000   0.0000   0.3088
   5.000   0.7909   0.01096   0.00440  -0.0493  0.3587  1.0000  -1.7334   0.0000   0.0000   0.0000   0.3072
   5.100   0.7977   0.01116   0.00453  -0.0485  0.3410  1.0000  -1.7717   0.0000   0.0000   0.0000   0.3056
   5.200   0.8045   0.01139   0.00465  -0.0478  0.3241  1.0000  -1.8100   0.0000   0.0000   0.0000   0.3040
   5.300   0.8118   0.01159   0.00478  -0.0471  0.3076  1.0000  -1.8497   0.0000   0.0000   0.0000   0.3026
   5.400   0.8193   0.01178   0.00491  -0.0465  0.2929  1.0000  -1.8900   0.0000   0.0000   0.0000   0.3012
   5.500   0.8262   0.01201   0.00506  -0.0458  0.2784  1.0000  -1.9293   0.0000   0.0000   0.0000   0.2997
   5.600   0.8341   0.01219   0.00519  -0.0452  0.2646  1.0000  -1.9754   0.0000   0.0000   0.0000   0.2985
   5.700   0.8414   0.01241   0.00534  -0.0446  0.2518  1.0000  -2.0222   0.0000   0.0000   0.0000   0.2971
   5.800   0.8492   0.01261   0.00549  -0.0440  0.2391  1.0000  -2.0708   0.0000   0.0000   0.0000   0.2959
   5.900   0.8567   0.01283   0.00568  -0.0434  0.2278  1.0000  -2.1187   0.0000   0.0000   0.0000   0.2946
   6.000   0.8646   0.01302   0.00583  -0.0429  0.2166  1.0000  -2.1681   0.0000   0.0000   0.0000   0.2935
   6.100   0.8719   0.01326   0.00600  -0.0423  0.2063  1.0000  -2.2158   0.0000   0.0000   0.0000   0.2922
   6.200   0.8802   0.01343   0.00616  -0.0418  0.1970  1.0000  -2.2668   0.0000   0.0000   0.0000   0.2911
   6.300   0.8874   0.01369   0.00634  -0.0412  0.1875  1.0000  -2.3149   0.0000   0.0000   0.0000   0.2899
   6.400   0.8955   0.01388   0.00652  -0.0407  0.1797  1.0000  -2.3657   0.0000   0.0000   0.0000   0.2888
   6.500   0.9036   0.01407   0.00669  -0.0402  0.1718  1.0000  -2.4168   0.0000   0.0000   0.0000   0.2878
   6.600   0.9103   0.01436   0.00690  -0.0395  0.1635  1.0000  -2.4642   0.0000   0.0000   0.0000   0.2866
   6.700   0.9188   0.01453   0.00709  -0.0390  0.1572  1.0000  -2.5167   0.0000   0.0000   0.0000   0.2856
   6.800   0.9270   0.01472   0.00726  -0.0386  0.1504  1.0000  -2.5693   0.0000   0.0000   0.0000   0.2846
   6.900   0.9341   0.01499   0.00746  -0.0379  0.1436  1.0000  -2.6187   0.0000   0.0000   0.0000   0.2835
   7.000   0.9412   0.01526   0.00771  -0.0373  0.1374  1.0000  -2.6673   0.0000   0.0000   0.0000   0.2824
   7.100   0.9501   0.01539   0.00788  -0.0369  0.1326  1.0000  -2.7226   0.0000   0.0000   0.0000   0.2815
   7.200   0.9581   0.01559   0.00806  -0.0364  0.1274  1.0000  -2.7758   0.0000   0.0000   0.0000   0.2806
   7.300   0.9650   0.01586   0.00828  -0.0358  0.1220  1.0000  -2.8257   0.0000   0.0000   0.0000   0.2795
   7.400   0.9708   0.01625   0.00862  -0.0349  0.1163  1.0000  -2.8701   0.0000   0.0000   0.0000   0.2783
   7.500   0.9800   0.01636   0.00881  -0.0346  0.1134  1.0000  -2.9339   0.0000   0.0000   0.0000   0.2775
   7.600   0.9885   0.01652   0.00900  -0.0342  0.1098  1.0000  -2.9980   0.0000   0.0000   0.0000   0.2767
   7.700   0.9963   0.01672   0.00921  -0.0337  0.1062  1.0000  -3.0603   0.0000   0.0000   0.0000   0.2758
   7.800   1.0035   0.01698   0.00944  -0.0331  0.1027  1.0000  -3.1202   0.0000   0.0000   0.0000   0.2748
   7.900   1.0096   0.01734   0.00976  -0.0323  0.0987  1.0000  -3.1749   0.0000   0.0000   0.0000   0.2737
   8.000   1.0149   0.01781   0.01022  -0.0314  0.0948  1.0000  -3.2244   0.0000   0.0000   0.0000   0.2725
   8.100   1.0238   0.01792   0.01038  -0.0310  0.0932  1.0000  -3.2920   0.0000   0.0000   0.0000   0.2718
   8.200   1.0322   0.01806   0.01057  -0.0306  0.0909  1.0000  -3.3580   0.0000   0.0000   0.0000   0.2710
   8.300   1.0402   0.01824   0.01078  -0.0301  0.0882  1.0000  -3.4231   0.0000   0.0000   0.0000   0.2702
   8.400   1.0480   0.01842   0.01098  -0.0296  0.0856  1.0000  -3.4882   0.0000   0.0000   0.0000   0.2694
   8.500   1.0552   0.01865   0.01120  -0.0290  0.0829  1.0000  -3.5516   0.0000   0.0000   0.0000   0.2685
   8.600   1.0615   0.01895   0.01148  -0.0283  0.0801  1.0000  -3.6108   0.0000   0.0000   0.0000   0.2675
   8.700   1.0662   0.01945   0.01196  -0.0273  0.0768  1.0000  -3.6591   0.0000   0.0000   0.0000   0.2664
   8.800   1.0716   0.01998   0.01251  -0.0265  0.0744  1.0000  -3.7085   0.0000   0.0000   0.0000   0.2653
   8.900   1.0794   0.02010   0.01269  -0.0259  0.0733  1.0000  -3.7755   0.0000   0.0000   0.0000   0.2645
   9.000   1.0868   0.02027   0.01290  -0.0253  0.0718  1.0000  -3.8487   0.0000   0.0000   0.0000   0.2637
   9.100   1.0938   0.02047   0.01315  -0.0247  0.0700  1.0000  -3.9201   0.0000   0.0000   0.0000   0.2628
   9.200   1.1005   0.02070   0.01341  -0.0240  0.0680  1.0000  -3.9904   0.0000   0.0000   0.0000   0.2619
   9.300   1.1069   0.02093   0.01370  -0.0233  0.0660  1.0000  -4.0600   0.0000   0.0000   0.0000   0.2610
   9.400   1.1130   0.02118   0.01396  -0.0225  0.0641  1.0000  -4.1289   0.0000   0.0000   0.0000   0.2601
   9.500   1.1183   0.02149   0.01427  -0.0217  0.0621  1.0000  -4.1942   0.0000   0.0000   0.0000   0.2591
   9.600   1.1226   0.02197   0.01473  -0.0207  0.0599  1.0000  -4.2515   0.0000   0.0000   0.0000   0.2580
   9.700   1.1260   0.02310   0.01589  -0.0197  0.0566  1.0000  -4.2876   0.0000   0.0000   0.0000   0.2570
   9.800   1.1325   0.02350   0.01633  -0.0191  0.0555  1.0000  -4.3531   0.0000   0.0000   0.0000   0.2562
   9.900   1.1389   0.02366   0.01655  -0.0184  0.0547  1.0000  -4.4250   0.0000   0.0000   0.0000   0.2553
  10.000   1.1452   0.02386   0.01680  -0.0176  0.0536  1.0000  -4.4955   0.0000   0.0000   0.0000   0.2545
  10.100   1.1513   0.02411   0.01710  -0.0169  0.0523  1.0000  -4.5645   0.0000   0.0000   0.0000   0.2536
  10.200   1.1571   0.02439   0.01741  -0.0162  0.0509  1.0000  -4.6326   0.0000   0.0000   0.0000   0.2528
  10.300   1.1627   0.02467   0.01774  -0.0154  0.0495  1.0000  -4.7215   0.0000   0.0000   0.0000   0.2519
  10.400   1.1682   0.02498   0.01807  -0.0146  0.0483  1.0000  -4.8241   0.0000   0.0000   0.0000   0.2510
  10.500   1.1734   0.02531   0.01843  -0.0139  0.0471  1.0000  -4.9301   0.0000   0.0000   0.0000   0.2502
  10.600   1.1784   0.02567   0.01881  -0.0131  0.0461  1.0000  -5.0352   0.0000   0.0000   0.0000   0.2493
  10.700   1.1831   0.02606   0.01923  -0.0123  0.0450  1.0000  -5.1385   0.0000   0.0000   0.0000   0.2484
  10.800   1.1874   0.02654   0.01973  -0.0114  0.0440  1.0000  -5.2371   0.0000   0.0000   0.0000   0.2475
  10.900   1.1913   0.02719   0.02040  -0.0106  0.0429  1.0000  -5.3297   0.0000   0.0000   0.0000   0.2467
  11.000   1.1954   0.02820   0.02147  -0.0098  0.0416  1.0000  -5.4127   0.0000   0.0000   0.0000   0.2459
  11.100   1.2006   0.03049   0.02391  -0.0096  0.0398  1.0000  -5.4666   0.0000   0.0000   0.0000   0.2455
  11.200   1.2052   0.03080   0.02429  -0.0088  0.0396  1.0000  -5.5719   0.0000   0.0000   0.0000   0.2447
  11.300   1.2098   0.03116   0.02471  -0.0080  0.0393  1.0000  -5.6760   0.0000   0.0000   0.0000   0.2438
  11.400   1.2141   0.03154   0.02515  -0.0071  0.0389  1.0000  -5.7792   0.0000   0.0000   0.0000   0.2430
  11.500   1.2183   0.03194   0.02561  -0.0063  0.0385  1.0000  -5.8814   0.0000   0.0000   0.0000   0.2422
  11.600   1.2223   0.03237   0.02610  -0.0055  0.0381  1.0000  -5.9826   0.0000   0.0000   0.0000   0.2413
  11.700   1.2260   0.03282   0.02662  -0.0047  0.0376  1.0000  -6.0820   0.0000   0.0000   0.0000   0.2405
  11.800   1.2295   0.03329   0.02719  -0.0039  0.0370  1.0000  -6.1814   0.0000   0.0000   0.0000   0.2397
  11.900   1.2328   0.03378   0.02774  -0.0030  0.0364  1.0000  -6.2807   0.0000   0.0000   0.0000   0.2388
  12.000   1.2356   0.03429   0.02831  -0.0022  0.0358  1.0000  -6.3757   0.0000   0.0000   0.0000   0.2380
  12.100   1.2382   0.03481   0.02890  -0.0014  0.0353  1.0000  -6.4688   0.0000   0.0000   0.0000   0.2372
  12.200   1.2406   0.03536   0.02950  -0.0005  0.0347  1.0000  -6.5604   0.0000   0.0000   0.0000   0.2363
  12.300   1.2429   0.03594   0.03014   0.0003  0.0342  1.0000  -6.6505   0.0000   0.0000   0.0000   0.2355
  12.400   1.2448   0.03656   0.03082   0.0011  0.0337  1.0000  -6.7375   0.0000   0.0000   0.0000   0.2347
  12.500   1.2465   0.03722   0.03155   0.0019  0.0333  1.0000  -6.8214   0.0000   0.0000   0.0000   0.2339
  12.600   1.2479   0.03789   0.03227   0.0027  0.0329  1.0000  -6.9043   0.0000   0.0000   0.0000   0.2331
  12.700   1.2492   0.03857   0.03302   0.0035  0.0325  1.0000  -6.9864   0.0000   0.0000   0.0000   0.2323
  12.800   1.2502   0.03928   0.03377   0.0042  0.0321  1.0000  -7.0667   0.0000   0.0000   0.0000   0.2315
  12.900   1.2509   0.04000   0.03455   0.0050  0.0317  1.0000  -7.1457   0.0000   0.0000   0.0000   0.2308
  13.000   1.2515   0.04074   0.03534   0.0057  0.0314  1.0000  -7.2234   0.0000   0.0000   0.0000   0.2301
  13.100   1.2518   0.04152   0.03617   0.0064  0.0310  1.0000  -7.2979   0.0000   0.0000   0.0000   0.2293
  13.200   1.2517   0.04233   0.03704   0.0070  0.0307  1.0000  -7.3697   0.0000   0.0000   0.0000   0.2286
  13.300   1.2514   0.04320   0.03796   0.0077  0.0304  1.0000  -7.4382   0.0000   0.0000   0.0000   0.2280
  13.400   1.2505   0.04415   0.03897   0.0083  0.0301  1.0000  -7.5005   0.0000   0.0000   0.0000   0.2273
  13.500   1.2491   0.04519   0.04006   0.0089  0.0298  1.0000  -7.5563   0.0000   0.0000   0.0000   0.2266
  13.600   1.2470   0.04633   0.04127   0.0094  0.0295  1.0000  -7.6034   0.0000   0.0000   0.0000   0.2260
  13.700   1.2440   0.04759   0.04260   0.0099  0.0293  1.0000  -7.6401   0.0000   0.0000   0.0000   0.2254
  13.800   1.2402   0.04898   0.04407   0.0104  0.0290  1.0000  -7.6663   0.0000   0.0000   0.0000   0.2248
  13.900   1.2355   0.05049   0.04566   0.0108  0.0288  1.0000  -7.6815   0.0000   0.0000   0.0000   0.2243
  14.000   1.2301   0.05212   0.04739   0.0112  0.0286  1.0000  -7.6871   0.0000   0.0000   0.0000   0.2238
  14.100   1.2238   0.05387   0.04923   0.0114  0.0285  1.0000  -7.6836   0.0000   0.0000   0.0000   0.2234
  14.200   1.2169   0.05572   0.05118   0.0115  0.0283  1.0000  -7.6721   0.0000   0.0000   0.0000   0.2230
  14.300   1.2095   0.05767   0.05322   0.0115  0.0282  1.0000  -7.6539   0.0000   0.0000   0.0000   0.2228
  14.400   1.2016   0.05970   0.05535   0.0114  0.0281  1.0000  -7.6297   0.0000   0.0000   0.0000   0.2226
  14.500   1.1934   0.06182   0.05756   0.0111  0.0280  1.0000  -7.6008   0.0000   0.0000   0.0000   0.2226
  14.600   1.1849   0.06402   0.05985   0.0107  0.0280  1.0000  -7.5681   0.0000   0.0000   0.0000   0.2227
  14.700   1.1763   0.06631   0.06223   0.0101  0.0279  1.0000  -7.5321   0.0000   0.0000   0.0000   0.2230
  14.800   1.1676   0.06869   0.06470   0.0093  0.0279  1.0000  -7.4933   0.0000   0.0000   0.0000   0.2234
  14.900   1.1588   0.07114   0.06724   0.0084  0.0279  1.0000  -7.4519   0.0000   0.0000   0.0000   0.2239
  15.000   1.1500   0.07369   0.06986   0.0073  0.0279  1.0000  -7.4081   0.0000   0.0000   0.0000   0.2246


