xflr5 v6.61

 Calculated polar for: SG6041

 1 1 Reynolds number fixed          Mach number fixed         

 xtrf =   1.000 (top)        1.000 (bottom)
 Mach =   0.000     Re =     0.300 e 6     Ncrit =   9.000

  alpha     CL        CD       CDp       Cm    Top Xtr Bot Xtr   Cpmin    Chinge    XCp    
 ------- -------- --------- --------- -------- ------- ------- -------- --------- ---------
 -10.000  -0.4192   0.10154   0.09850  -0.0346  1.0000  0.0287  -1.9426   0.0000   0.0000   0.0000   0.1592
  -9.900  -0.4187   0.10029   0.09726  -0.0348  1.0000  0.0289  -1.9359   0.0000   0.0000   0.0000   0.1587
  -9.800  -0.4185   0.09902   0.09600  -0.0350  1.0000  0.0292  -1.9311   0.0000   0.0000   0.0000   0.1582
  -9.700  -0.4184   0.09774   0.09473  -0.0353  1.0000  0.0294  -1.9281   0.0000   0.0000   0.0000   0.1577
  -9.600  -0.4186   0.09645   0.09345  -0.0355  1.0000  0.0296  -1.9268   0.0000   0.0000   0.0000   0.1573
  -9.500  -0.4189   0.09515   0.09217  -0.0358  1.0000  0.0299  -1.9272   0.0000   0.0000   0.0000   0.1569
  -9.400  -0.4195   0.09384   0.09088  -0.0360  1.0000  0.0301  -1.9292   0.0000   0.0000   0.0000   0.1565
  -9.300  -0.4202   0.09252   0.08957  -0.0363  1.0000  0.0304  -1.9329   0.0000   0.0000   0.0000   0.1561
  -9.200  -0.4212   0.09120   0.08826  -0.0366  1.0000  0.0306  -1.9382   0.0000   0.0000   0.0000   0.1558
  -9.100  -0.4225   0.08986   0.08694  -0.0369  1.0000  0.0309  -1.9452   0.0000   0.0000   0.0000   0.1556
  -9.000  -0.4240   0.08851   0.08561  -0.0371  1.0000  0.0311  -1.9539   0.0000   0.0000   0.0000   0.1554
  -8.900  -0.4259   0.08716   0.08428  -0.0374  1.0000  0.0313  -1.9644   0.0000   0.0000   0.0000   0.1553
  -8.800  -0.4281   0.08582   0.08296  -0.0376  1.0000  0.0316  -1.9766   0.0000   0.0000   0.0000   0.1553
  -8.700  -0.4308   0.08447   0.08163  -0.0378  1.0000  0.0318  -1.9907   0.0000   0.0000   0.0000   0.1555
  -8.600  -0.4340   0.08313   0.08031  -0.0380  1.0000  0.0320  -2.0068   0.0000   0.0000   0.0000   0.1559
  -8.500  -0.4378   0.08180   0.07900  -0.0382  1.0000  0.0322  -2.0253   0.0000   0.0000   0.0000   0.1565
  -8.400  -0.4423   0.08049   0.07772  -0.0382  1.0000  0.0323  -2.0464   0.0000   0.0000   0.0000   0.1574
  -8.300  -0.4479   0.07923   0.07648  -0.0382  1.0000  0.0324  -2.0703   0.0000   0.0000   0.0000   0.1587
  -8.200  -0.4547   0.07801   0.07529  -0.0380  1.0000  0.0325  -2.0976   0.0000   0.0000   0.0000   0.1605
  -8.100  -0.4632   0.07687   0.07419  -0.0377  1.0000  0.0324  -2.1291   0.0000   0.0000   0.0000   0.1629
  -8.000  -0.4739   0.07585   0.07320  -0.0372  1.0000  0.0323  -2.1662   0.0000   0.0000   0.0000   0.1662
  -7.900  -0.4872   0.07500   0.07238  -0.0363  1.0000  0.0321  -2.2089   0.0000   0.0000   0.0000   0.1704
  -7.800  -0.5005   0.07429   0.07168  -0.0350  1.0000  0.0319  -2.2484   0.0000   0.0000   0.0000   0.1752
  -7.700  -0.5103   0.07332   0.07072  -0.0340  1.0000  0.0318  -2.2800   0.0000   0.0000   0.0000   0.1786
  -7.600  -0.5183   0.07219   0.06959  -0.0333  1.0000  0.0319  -2.3084   0.0000   0.0000   0.0000   0.1811
  -7.500  -0.5257   0.07103   0.06842  -0.0326  1.0000  0.0319  -2.3347   0.0000   0.0000   0.0000   0.1834
  -7.400  -0.5322   0.06982   0.06721  -0.0320  1.0000  0.0320  -2.3589   0.0000   0.0000   0.0000   0.1854
  -7.300  -0.5381   0.06859   0.06597  -0.0314  1.0000  0.0321  -2.3810   0.0000   0.0000   0.0000   0.1873
  -7.200  -0.5358   0.06649   0.06382  -0.0331  0.9989  0.0325  -2.3969   0.0000   0.0000   0.0000   0.1839
  -7.100  -0.5294   0.06407   0.06133  -0.0357  0.9971  0.0331  -2.4096   0.0000   0.0000   0.0000   0.1784
  -7.000  -0.5224   0.06174   0.05893  -0.0380  0.9952  0.0338  -2.4230   0.0000   0.0000   0.0000   0.1731
  -6.900  -0.5138   0.05952   0.05660  -0.0402  0.9934  0.0348  -2.4396   0.0000   0.0000   0.0000   0.1675
  -6.800  -0.5000   0.05828   0.05521  -0.0422  0.9918  0.0364  -2.4399   0.0000   0.0000   0.0000   0.1613
  -6.700  -0.4852   0.05795   0.05473  -0.0437  0.9906  0.0372  -2.4022   0.0000   0.0000   0.0000   0.1555
  -6.600  -0.4794   0.05675   0.05343  -0.0441  0.9884  0.0374  -2.3879   0.0000   0.0000   0.0000   0.1535
  -6.500  -0.4731   0.05538   0.05196  -0.0447  0.9862  0.0375  -2.3726   0.0000   0.0000   0.0000   0.1512
  -6.400  -0.4662   0.05393   0.05039  -0.0453  0.9841  0.0375  -2.3553   0.0000   0.0000   0.0000   0.1484
  -6.300  -0.4587   0.05243   0.04879  -0.0460  0.9821  0.0376  -2.3515   0.0000   0.0000   0.0000   0.1454
  -6.200  -0.4507   0.05091   0.04716  -0.0466  0.9803  0.0376  -2.3489   0.0000   0.0000   0.0000   0.1421
  -6.100  -0.4601   0.04294   0.03891  -0.0485  0.9775  0.0393  -2.5533   0.0000   0.0000   0.0000   0.1402
  -6.000  -0.4522   0.04092   0.03682  -0.0493  0.9762  0.0400  -2.5294   0.0000   0.0000   0.0000   0.1364
  -5.900  -0.4419   0.03955   0.03542  -0.0501  0.9751  0.0406  -2.4832   0.0000   0.0000   0.0000   0.1321
  -5.800  -0.4308   0.03840   0.03424  -0.0509  0.9742  0.0412  -2.4315   0.0000   0.0000   0.0000   0.1273
  -5.700  -0.4192   0.03729   0.03308  -0.0518  0.9733  0.0418  -2.3833   0.0000   0.0000   0.0000   0.1220
  -5.600  -0.4073   0.03620   0.03192  -0.0526  0.9725  0.0425  -2.3399   0.0000   0.0000   0.0000   0.1163
  -5.300  -0.3863   0.02818   0.02291  -0.0490  0.9659  0.0241  -2.8588   0.0000   0.0000   0.0000   0.1182
  -5.200  -0.3802   0.02604   0.02056  -0.0485  0.9638  0.0227  -2.9196   0.0000   0.0000   0.0000   0.1175
  -5.100  -0.3714   0.02423   0.01851  -0.0481  0.9621  0.0214  -2.9820   0.0000   0.0000   0.0000   0.1154
  -5.000  -0.3616   0.02227   0.01623  -0.0476  0.9607  0.0200  -3.0881   0.0000   0.0000   0.0000   0.1131
  -4.900  -0.3504   0.02071   0.01439  -0.0473  0.9595  0.0190  -3.1699   0.0000   0.0000   0.0000   0.1097
  -4.800  -0.3382   0.01974   0.01326  -0.0473  0.9584  0.0186  -3.1822   0.0000   0.0000   0.0000   0.1048
  -4.700  -0.3257   0.01901   0.01238  -0.0475  0.9574  0.0184  -3.1634   0.0000   0.0000   0.0000   0.0988
  -4.600  -0.3129   0.01838   0.01166  -0.0477  0.9563  0.0184  -3.1306   0.0000   0.0000   0.0000   0.0919
  -4.500  -0.3000   0.01779   0.01101  -0.0480  0.9554  0.0184  -3.0915   0.0000   0.0000   0.0000   0.0843
  -4.400  -0.2869   0.01725   0.01041  -0.0484  0.9544  0.0186  -3.0475   0.0000   0.0000   0.0000   0.0757
  -4.300  -0.2736   0.01676   0.00987  -0.0488  0.9535  0.0189  -2.9979   0.0000   0.0000   0.0000   0.0658
  -4.200  -0.2599   0.01632   0.00941  -0.0493  0.9527  0.0194  -2.9429   0.0000   0.0000   0.0000   0.0543
  -4.100  -0.2458   0.01594   0.00901  -0.0499  0.9519  0.0200  -2.8844   0.0000   0.0000   0.0000   0.0409
  -4.000  -0.2314   0.01560   0.00864  -0.0506  0.9511  0.0209  -2.8262   0.0000   0.0000   0.0000   0.0252
  -3.900  -0.2167   0.01528   0.00830  -0.0513  0.9504  0.0222  -2.7732   0.0000   0.0000   0.0000   0.0069
  -3.800  -0.2017   0.01499   0.00799  -0.0520  0.9498  0.0240  -2.7255   0.0000   0.0000   0.0000  -0.0145
  -3.700  -0.1877   0.01448   0.00744  -0.0526  0.9491  0.0270  -2.7138   0.0000   0.0000   0.0000  -0.0371
  -3.600  -0.1883   0.01423   0.00720  -0.0502  0.9446  0.0296  -2.7036   0.0000   0.0000   0.0000  -0.0234
  -3.500  -0.1792   0.01407   0.00705  -0.0498  0.9420  0.0341  -2.6525   0.0000   0.0000   0.0000  -0.0345
  -3.400  -0.1685   0.01377   0.00675  -0.0497  0.9399  0.0418  -2.6051   0.0000   0.0000   0.0000  -0.0516
  -3.300  -0.1563   0.01363   0.00668  -0.0500  0.9381  0.0522  -2.5169   0.0000   0.0000   0.0000  -0.0769
  -3.200  -0.1442   0.01334   0.00644  -0.0502  0.9365  0.0654  -2.4389   0.0000   0.0000   0.0000  -0.1059
  -3.100  -0.1304   0.01326   0.00636  -0.0508  0.9352  0.0750  -2.3339   0.0000   0.0000   0.0000  -0.1476
  -3.000  -0.1173   0.01294   0.00610  -0.0513  0.9339  0.0888  -2.2435   0.0000   0.0000   0.0000  -0.1956
  -2.900  -0.1029   0.01278   0.00594  -0.0519  0.9327  0.0994  -2.1395   0.0000   0.0000   0.0000  -0.2642
  -2.800  -0.0888   0.01250   0.00576  -0.0526  0.9317  0.1208  -2.0386   0.0000   0.0000   0.0000  -0.3526
  -2.700  -0.0751   0.01215   0.00560  -0.0533  0.9308  0.1622  -1.9381   0.0000   0.0000   0.0000  -0.4716
  -2.600  -0.0626   0.01157   0.00544  -0.0540  0.9298  0.2606  -1.8424   0.0000   0.0000   0.0000  -0.6269
  -2.500  -0.0517   0.01080   0.00529  -0.0545  0.9288  0.4166  -1.7534   0.0000   0.0000   0.0000  -0.8192
  -2.400  -0.0417   0.01014   0.00527  -0.0545  0.9279  0.5751  -1.6661   0.0000   0.0000   0.0000  -1.0723
  -2.300  -0.0289   0.00990   0.00532  -0.0546  0.9271  0.6607  -1.5670   0.0000   0.0000   0.0000  -1.6617
  -2.200  -0.0145   0.00981   0.00532  -0.0550  0.9264  0.7024  -1.4631   0.0000   0.0000   0.0000  -3.5857
  -2.100   0.0002   0.00975   0.00530  -0.0556  0.9257  0.7280  -1.3592   0.0000   0.0000   0.0000  230.4914
  -2.000  -0.0022   0.00978   0.00536  -0.0526  0.9198  0.7378  -1.3241   0.0000   0.0000   0.0000  -24.3244
  -1.900   0.0074   0.00976   0.00532  -0.0522  0.9169  0.7526  -1.2404   0.0000   0.0000   0.0000   7.3826
  -1.800   0.0193   0.00970   0.00529  -0.0521  0.9149  0.7652  -1.1520   0.0000   0.0000   0.0000   2.9813
  -1.700   0.0323   0.00966   0.00523  -0.0523  0.9131  0.7774  -1.0609   0.0000   0.0000   0.0000   1.8836
  -1.600   0.0458   0.00959   0.00519  -0.0526  0.9116  0.7874  -0.9698   0.0000   0.0000   0.0000   1.4082
  -1.500   0.0596   0.00954   0.00513  -0.0529  0.9101  0.7990  -0.8794   0.0000   0.0000   0.0000   1.1450
  -1.400   0.0733   0.00948   0.00508  -0.0532  0.9088  0.8092  -0.7908   0.0000   0.0000   0.0000   0.9804
  -1.300   0.0871   0.00942   0.00502  -0.0535  0.9075  0.8195  -0.7099   0.0000   0.0000   0.0000   0.8674
  -1.200   0.1013   0.00936   0.00495  -0.0539  0.9063  0.8287  -0.6423   0.0000   0.0000   0.0000   0.7847
  -1.100   0.1155   0.00929   0.00490  -0.0542  0.9051  0.8369  -0.5757   0.0000   0.0000   0.0000   0.7215
  -1.000   0.1299   0.00924   0.00484  -0.0546  0.9039  0.8453  -0.5098   0.0000   0.0000   0.0000   0.6721
  -0.900   0.1443   0.00919   0.00477  -0.0551  0.9027  0.8531  -0.4505   0.0000   0.0000   0.0000   0.6328
  -0.800   0.1549   0.00916   0.00476  -0.0546  0.9004  0.8609  -0.4179   0.0000   0.0000   0.0000   0.6036
  -0.700   0.1585   0.00918   0.00479  -0.0529  0.8957  0.8701  -0.3986   0.0000   0.0000   0.0000   0.5841
  -0.600   0.1665   0.00915   0.00478  -0.0519  0.8923  0.8802  -0.4003   0.0000   0.0000   0.0000   0.5618
  -0.500   0.1757   0.00912   0.00477  -0.0510  0.8895  0.8912  -0.4090   0.0000   0.0000   0.0000   0.5403
  -0.400   0.1857   0.00908   0.00473  -0.0504  0.8870  0.9018  -0.4186   0.0000   0.0000   0.0000   0.5210
  -0.300   0.1985   0.00903   0.00469  -0.0502  0.8851  0.9094  -0.4312   0.0000   0.0000   0.0000   0.5028
  -0.200   0.2115   0.00898   0.00463  -0.0503  0.8831  0.9163  -0.4439   0.0000   0.0000   0.0000   0.4872
  -0.100   0.2245   0.00892   0.00455  -0.0504  0.8811  0.9222  -0.4566   0.0000   0.0000   0.0000   0.4738
   0.000   0.2394   0.00885   0.00447  -0.0509  0.8793  0.9262  -0.4707   0.0000   0.0000   0.0000   0.4619
   0.100   0.2551   0.00881   0.00442  -0.0516  0.8773  0.9292  -0.4866   0.0000   0.0000   0.0000   0.4515
   0.200   0.2642   0.00881   0.00442  -0.0511  0.8730  0.9335  -0.4981   0.0000   0.0000   0.0000   0.4424
   0.300   0.2759   0.00878   0.00439  -0.0511  0.8691  0.9373  -0.5114   0.0000   0.0000   0.0000   0.4340
   0.400   0.2887   0.00873   0.00432  -0.0513  0.8656  0.9409  -0.5264   0.0000   0.0000   0.0000   0.4263
   0.500   0.3018   0.00867   0.00424  -0.0515  0.8624  0.9443  -0.5425   0.0000   0.0000   0.0000   0.4194
   0.600   0.3145   0.00861   0.00416  -0.0517  0.8594  0.9478  -0.5583   0.0000   0.0000   0.0000   0.4129
   0.700   0.3313   0.00855   0.00407  -0.0527  0.8568  0.9494  -0.5792   0.0000   0.0000   0.0000   0.4076
   0.800   0.3485   0.00849   0.00399  -0.0538  0.8541  0.9508  -0.6011   0.0000   0.0000   0.0000   0.4029
   0.900   0.3626   0.00848   0.00398  -0.0544  0.8498  0.9530  -0.6205   0.0000   0.0000   0.0000   0.3983
   1.000   0.3768   0.00845   0.00395  -0.0550  0.8449  0.9553  -0.6401   0.0000   0.0000   0.0000   0.3941
   1.100   0.3919   0.00840   0.00389  -0.0557  0.8403  0.9574  -0.6606   0.0000   0.0000   0.0000   0.3902
   1.200   0.4073   0.00835   0.00382  -0.0565  0.8361  0.9594  -0.6815   0.0000   0.0000   0.0000   0.3867
   1.300   0.4231   0.00830   0.00374  -0.0573  0.8323  0.9613  -0.7029   0.0000   0.0000   0.0000   0.3834
   1.400   0.4384   0.00827   0.00369  -0.0581  0.8283  0.9635  -0.7239   0.0000   0.0000   0.0000   0.3803
   1.500   0.4508   0.00826   0.00371  -0.0583  0.8226  0.9668  -0.7439   0.0000   0.0000   0.0000   0.3772
   1.600   0.4628   0.00823   0.00368  -0.0584  0.8169  0.9702  -0.7652   0.0000   0.0000   0.0000   0.3740
   1.700   0.4784   0.00819   0.00362  -0.0593  0.8115  0.9719  -0.7902   0.0000   0.0000   0.0000   0.3716
   1.800   0.4955   0.00814   0.00354  -0.0604  0.8066  0.9728  -0.8179   0.0000   0.0000   0.0000   0.3695
   1.900   0.5112   0.00812   0.00352  -0.0614  0.8000  0.9745  -0.8476   0.0000   0.0000   0.0000   0.3676
   2.000   0.5267   0.00809   0.00349  -0.0623  0.7923  0.9763  -0.8774   0.0000   0.0000   0.0000   0.3657
   2.100   0.5426   0.00805   0.00342  -0.0632  0.7850  0.9780  -0.9080   0.0000   0.0000   0.0000   0.3638
   2.200   0.5578   0.00803   0.00338  -0.0640  0.7772  0.9803  -0.9379   0.0000   0.0000   0.0000   0.3620
   2.300   0.5725   0.00802   0.00336  -0.0647  0.7682  0.9829  -0.9673   0.0000   0.0000   0.0000   0.3603
   2.400   0.5872   0.00800   0.00330  -0.0654  0.7597  0.9853  -0.9972   0.0000   0.0000   0.0000   0.3585
   2.500   0.6010   0.00800   0.00329  -0.0660  0.7506  0.9881  -1.0260   0.0000   0.0000   0.0000   0.3569
   2.600   0.6147   0.00801   0.00328  -0.0665  0.7411  0.9906  -1.0572   0.0000   0.0000   0.0000   0.3552
   2.700   0.6304   0.00800   0.00326  -0.0675  0.7315  0.9924  -1.0942   0.0000   0.0000   0.0000   0.3539
   2.800   0.6456   0.00800   0.00324  -0.0684  0.7196  0.9947  -1.1309   0.0000   0.0000   0.0000   0.3527
   2.900   0.6607   0.00803   0.00320  -0.0692  0.7068  0.9970  -1.1677   0.0000   0.0000   0.0000   0.3515
   3.000   0.6756   0.00806   0.00318  -0.0700  0.6910  0.9993  -1.2046   0.0000   0.0000   0.0000   0.3503
   3.100   0.6842   0.00809   0.00316  -0.0696  0.6765  1.0000  -1.2323   0.0000   0.0000   0.0000   0.3482
   3.200   0.6888   0.00815   0.00313  -0.0683  0.6626  1.0000  -1.2546   0.0000   0.0000   0.0000   0.3456
   3.300   0.6933   0.00819   0.00313  -0.0670  0.6476  1.0000  -1.2766   0.0000   0.0000   0.0000   0.3431
   3.400   0.6978   0.00826   0.00313  -0.0657  0.6327  1.0000  -1.2987   0.0000   0.0000   0.0000   0.3405
   3.500   0.7021   0.00835   0.00314  -0.0644  0.6169  1.0000  -1.3207   0.0000   0.0000   0.0000   0.3379
   3.600   0.7069   0.00843   0.00316  -0.0632  0.6002  1.0000  -1.3434   0.0000   0.0000   0.0000   0.3355
   3.700   0.7117   0.00855   0.00319  -0.0619  0.5829  1.0000  -1.3663   0.0000   0.0000   0.0000   0.3330
   3.800   0.7165   0.00868   0.00322  -0.0607  0.5648  1.0000  -1.3894   0.0000   0.0000   0.0000   0.3306
   3.900   0.7217   0.00882   0.00327  -0.0595  0.5459  1.0000  -1.4132   0.0000   0.0000   0.0000   0.3283
   4.000   0.7275   0.00896   0.00332  -0.0584  0.5273  1.0000  -1.4377   0.0000   0.0000   0.0000   0.3261
   4.100   0.7333   0.00911   0.00339  -0.0574  0.5093  1.0000  -1.4626   0.0000   0.0000   0.0000   0.3239
   4.200   0.7391   0.00927   0.00346  -0.0564  0.4918  1.0000  -1.4874   0.0000   0.0000   0.0000   0.3218
   4.300   0.7450   0.00944   0.00357  -0.0554  0.4732  1.0000  -1.5127   0.0000   0.0000   0.0000   0.3198
   4.400   0.7514   0.00960   0.00366  -0.0544  0.4543  1.0000  -1.5386   0.0000   0.0000   0.0000   0.3178
   4.500   0.7576   0.00979   0.00375  -0.0535  0.4355  1.0000  -1.5645   0.0000   0.0000   0.0000   0.3159
   4.600   0.7638   0.00998   0.00384  -0.0526  0.4166  1.0000  -1.5904   0.0000   0.0000   0.0000   0.3141
   4.700   0.7700   0.01019   0.00395  -0.0517  0.3974  1.0000  -1.6209   0.0000   0.0000   0.0000   0.3122
   4.800   0.7767   0.01038   0.00405  -0.0509  0.3780  1.0000  -1.6577   0.0000   0.0000   0.0000   0.3105
   4.900   0.7837   0.01057   0.00416  -0.0501  0.3597  1.0000  -1.6958   0.0000   0.0000   0.0000   0.3089
   5.000   0.7905   0.01077   0.00428  -0.0494  0.3423  1.0000  -1.7340   0.0000   0.0000   0.0000   0.3073
   5.100   0.7973   0.01099   0.00440  -0.0486  0.3256  1.0000  -1.7722   0.0000   0.0000   0.0000   0.3057
   5.200   0.8050   0.01116   0.00452  -0.0480  0.3096  1.0000  -1.8125   0.0000   0.0000   0.0000   0.3042
   5.300   0.8124   0.01136   0.00464  -0.0474  0.2952  1.0000  -1.8526   0.0000   0.0000   0.0000   0.3028
   5.400   0.8196   0.01157   0.00477  -0.0467  0.2805  1.0000  -1.8924   0.0000   0.0000   0.0000   0.3014
   5.500   0.8276   0.01174   0.00490  -0.0462  0.2671  1.0000  -1.9342   0.0000   0.0000   0.0000   0.3001
   5.600   0.8348   0.01197   0.00505  -0.0455  0.2540  1.0000  -1.9797   0.0000   0.0000   0.0000   0.2987
   5.700   0.8430   0.01214   0.00518  -0.0450  0.2416  1.0000  -2.0291   0.0000   0.0000   0.0000   0.2975
   5.800   0.8504   0.01236   0.00533  -0.0444  0.2299  1.0000  -2.0764   0.0000   0.0000   0.0000   0.2962
   5.900   0.8587   0.01253   0.00550  -0.0439  0.2189  1.0000  -2.1267   0.0000   0.0000   0.0000   0.2951
   6.000   0.8658   0.01278   0.00566  -0.0433  0.2080  1.0000  -2.1740   0.0000   0.0000   0.0000   0.2938
   6.100   0.8745   0.01293   0.00581  -0.0428  0.1989  1.0000  -2.2258   0.0000   0.0000   0.0000   0.2927
   6.200   0.8820   0.01315   0.00597  -0.0423  0.1893  1.0000  -2.2749   0.0000   0.0000   0.0000   0.2915
   6.300   0.8900   0.01335   0.00614  -0.0417  0.1811  1.0000  -2.3252   0.0000   0.0000   0.0000   0.2904
   6.400   0.8983   0.01353   0.00630  -0.0413  0.1732  1.0000  -2.3770   0.0000   0.0000   0.0000   0.2894
   6.500   0.9054   0.01378   0.00649  -0.0406  0.1649  1.0000  -2.4257   0.0000   0.0000   0.0000   0.2882
   6.600   0.9137   0.01397   0.00667  -0.0402  0.1581  1.0000  -2.4775   0.0000   0.0000   0.0000   0.2872
   6.700   0.9221   0.01414   0.00683  -0.0397  0.1514  1.0000  -2.5306   0.0000   0.0000   0.0000   0.2862
   6.800   0.9294   0.01438   0.00702  -0.0391  0.1444  1.0000  -2.5809   0.0000   0.0000   0.0000   0.2851
   6.900   0.9366   0.01465   0.00724  -0.0385  0.1377  1.0000  -2.6299   0.0000   0.0000   0.0000   0.2840
   7.000   0.9456   0.01478   0.00740  -0.0381  0.1329  1.0000  -2.6857   0.0000   0.0000   0.0000   0.2831
   7.100   0.9537   0.01497   0.00757  -0.0377  0.1275  1.0000  -2.7390   0.0000   0.0000   0.0000   0.2821
   7.200   0.9608   0.01523   0.00778  -0.0370  0.1219  1.0000  -2.7896   0.0000   0.0000   0.0000   0.2811
   7.300   0.9671   0.01556   0.00807  -0.0363  0.1162  1.0000  -2.8360   0.0000   0.0000   0.0000   0.2799
   7.400   0.9763   0.01567   0.00823  -0.0359  0.1131  1.0000  -2.8936   0.0000   0.0000   0.0000   0.2791
   7.500   0.9848   0.01583   0.00844  -0.0355  0.1095  1.0000  -2.9577   0.0000   0.0000   0.0000   0.2783
   7.600   0.9926   0.01603   0.00864  -0.0350  0.1058  1.0000  -3.0198   0.0000   0.0000   0.0000   0.2773
   7.700   0.9998   0.01629   0.00886  -0.0344  0.1021  1.0000  -3.0798   0.0000   0.0000   0.0000   0.2764
   7.800   1.0055   0.01666   0.00920  -0.0335  0.0976  1.0000  -3.1328   0.0000   0.0000   0.0000   0.2752
   7.900   1.0122   0.01699   0.00954  -0.0328  0.0945  1.0000  -3.1889   0.0000   0.0000   0.0000   0.2741
   8.000   1.0211   0.01710   0.00969  -0.0325  0.0926  1.0000  -3.2568   0.0000   0.0000   0.0000   0.2734
   8.100   1.0295   0.01725   0.00988  -0.0320  0.0901  1.0000  -3.3232   0.0000   0.0000   0.0000   0.2726
   8.200   1.0376   0.01741   0.01007  -0.0316  0.0875  1.0000  -3.3890   0.0000   0.0000   0.0000   0.2718
   8.300   1.0454   0.01761   0.01027  -0.0311  0.0847  1.0000  -3.4541   0.0000   0.0000   0.0000   0.2710
   8.400   1.0525   0.01784   0.01049  -0.0305  0.0819  1.0000  -3.5169   0.0000   0.0000   0.0000   0.2701
   8.500   1.0584   0.01818   0.01080  -0.0297  0.0789  1.0000  -3.5736   0.0000   0.0000   0.0000   0.2690
   8.600   1.0622   0.01878   0.01140  -0.0285  0.0753  1.0000  -3.6165   0.0000   0.0000   0.0000   0.2678
   8.700   1.0697   0.01900   0.01166  -0.0280  0.0740  1.0000  -3.6794   0.0000   0.0000   0.0000   0.2669
   8.800   1.0777   0.01913   0.01183  -0.0275  0.0728  1.0000  -3.7463   0.0000   0.0000   0.0000   0.2661
   8.900   1.0852   0.01930   0.01204  -0.0269  0.0712  1.0000  -3.8155   0.0000   0.0000   0.0000   0.2653
   9.000   1.0924   0.01949   0.01227  -0.0263  0.0694  1.0000  -3.8881   0.0000   0.0000   0.0000   0.2644
   9.100   1.0992   0.01970   0.01251  -0.0256  0.0674  1.0000  -3.9598   0.0000   0.0000   0.0000   0.2635
   9.200   1.1058   0.01991   0.01274  -0.0249  0.0655  1.0000  -4.0312   0.0000   0.0000   0.0000   0.2626
   9.300   1.1118   0.02017   0.01303  -0.0241  0.0635  1.0000  -4.1003   0.0000   0.0000   0.0000   0.2617
   9.400   1.1168   0.02050   0.01335  -0.0232  0.0614  1.0000  -4.1640   0.0000   0.0000   0.0000   0.2606
   9.500   1.1202   0.02106   0.01391  -0.0220  0.0588  1.0000  -4.2144   0.0000   0.0000   0.0000   0.2594
   9.600   1.1230   0.02204   0.01493  -0.0209  0.0559  1.0000  -4.2511   0.0000   0.0000   0.0000   0.2582
   9.700   1.1300   0.02216   0.01509  -0.0203  0.0552  1.0000  -4.3265   0.0000   0.0000   0.0000   0.2574
   9.800   1.1369   0.02232   0.01530  -0.0196  0.0542  1.0000  -4.4005   0.0000   0.0000   0.0000   0.2566
   9.900   1.1434   0.02253   0.01555  -0.0189  0.0530  1.0000  -4.4729   0.0000   0.0000   0.0000   0.2557
  10.000   1.1497   0.02276   0.01582  -0.0182  0.0516  1.0000  -4.5438   0.0000   0.0000   0.0000   0.2549
  10.100   1.1557   0.02301   0.01611  -0.0175  0.0501  1.0000  -4.6139   0.0000   0.0000   0.0000   0.2540
  10.200   1.1614   0.02328   0.01640  -0.0167  0.0487  1.0000  -4.6835   0.0000   0.0000   0.0000   0.2532
  10.300   1.1669   0.02356   0.01670  -0.0160  0.0474  1.0000  -4.7838   0.0000   0.0000   0.0000   0.2523
  10.400   1.1722   0.02387   0.01703  -0.0152  0.0463  1.0000  -4.8910   0.0000   0.0000   0.0000   0.2514
  10.500   1.1770   0.02423   0.01741  -0.0144  0.0451  1.0000  -4.9947   0.0000   0.0000   0.0000   0.2505
  10.600   1.1812   0.02470   0.01789  -0.0135  0.0439  1.0000  -5.0922   0.0000   0.0000   0.0000   0.2496
  10.700   1.1846   0.02534   0.01855  -0.0125  0.0427  1.0000  -5.1799   0.0000   0.0000   0.0000   0.2486
  10.800   1.1876   0.02639   0.01966  -0.0116  0.0411  1.0000  -5.2527   0.0000   0.0000   0.0000   0.2477
  10.900   1.1918   0.02790   0.02129  -0.0110  0.0397  1.0000  -5.3203   0.0000   0.0000   0.0000   0.2470
  11.000   1.1972   0.02818   0.02162  -0.0102  0.0395  1.0000  -5.4312   0.0000   0.0000   0.0000   0.2462
  11.100   1.2024   0.02850   0.02199  -0.0095  0.0391  1.0000  -5.5408   0.0000   0.0000   0.0000   0.2454
  11.200   1.2075   0.02887   0.02241  -0.0087  0.0387  1.0000  -5.6490   0.0000   0.0000   0.0000   0.2446
  11.300   1.2124   0.02925   0.02285  -0.0080  0.0383  1.0000  -5.7564   0.0000   0.0000   0.0000   0.2438
  11.400   1.2171   0.02965   0.02331  -0.0072  0.0377  1.0000  -5.8629   0.0000   0.0000   0.0000   0.2430
  11.500   1.2215   0.03007   0.02379  -0.0065  0.0372  1.0000  -5.9679   0.0000   0.0000   0.0000   0.2422
  11.600   1.2256   0.03051   0.02428  -0.0057  0.0366  1.0000  -6.0713   0.0000   0.0000   0.0000   0.2414
  11.700   1.2295   0.03095   0.02478  -0.0049  0.0360  1.0000  -6.1740   0.0000   0.0000   0.0000   0.2406
  11.800   1.2332   0.03140   0.02532  -0.0041  0.0353  1.0000  -6.2795   0.0000   0.0000   0.0000   0.2398
  11.900   1.2367   0.03185   0.02582  -0.0033  0.0347  1.0000  -6.3824   0.0000   0.0000   0.0000   0.2390
  12.000   1.2400   0.03230   0.02633  -0.0025  0.0341  1.0000  -6.4839   0.0000   0.0000   0.0000   0.2382
  12.100   1.2431   0.03278   0.02684  -0.0017  0.0335  1.0000  -6.5845   0.0000   0.0000   0.0000   0.2374
  12.200   1.2461   0.03327   0.02738  -0.0010  0.0330  1.0000  -6.6840   0.0000   0.0000   0.0000   0.2366
  12.300   1.2488   0.03381   0.02796  -0.0002  0.0325  1.0000  -6.7813   0.0000   0.0000   0.0000   0.2358
  12.400   1.2512   0.03437   0.02857   0.0006  0.0321  1.0000  -6.8762   0.0000   0.0000   0.0000   0.2350
  12.500   1.2534   0.03494   0.02919   0.0014  0.0317  1.0000  -6.9698   0.0000   0.0000   0.0000   0.2343
  12.600   1.2555   0.03554   0.02983   0.0021  0.0312  1.0000  -7.0624   0.0000   0.0000   0.0000   0.2335
  12.700   1.2572   0.03618   0.03051   0.0028  0.0308  1.0000  -7.1520   0.0000   0.0000   0.0000   0.2328
  12.800   1.2585   0.03687   0.03124   0.0036  0.0305  1.0000  -7.2374   0.0000   0.0000   0.0000   0.2320
  12.900   1.2593   0.03764   0.03206   0.0043  0.0301  1.0000  -7.3174   0.0000   0.0000   0.0000   0.2312
  13.000   1.2596   0.03851   0.03299   0.0051  0.0297  1.0000  -7.3899   0.0000   0.0000   0.0000   0.2305
  13.100   1.2591   0.03952   0.03407   0.0058  0.0293  1.0000  -7.4516   0.0000   0.0000   0.0000   0.2297
  13.200   1.2576   0.04070   0.03532   0.0066  0.0289  1.0000  -7.5004   0.0000   0.0000   0.0000   0.2290
  13.300   1.2550   0.04207   0.03678   0.0073  0.0286  1.0000  -7.5335   0.0000   0.0000   0.0000   0.2282
  13.400   1.2508   0.04363   0.03845   0.0081  0.0282  1.0000  -7.5485   0.0000   0.0000   0.0000   0.2274
  13.500   1.2452   0.04537   0.04030   0.0088  0.0280  1.0000  -7.5470   0.0000   0.0000   0.0000   0.2266
  13.600   1.2382   0.04723   0.04230   0.0095  0.0277  1.0000  -7.5315   0.0000   0.0000   0.0000   0.2259
  13.700   1.2303   0.04919   0.04438   0.0101  0.0276  1.0000  -7.5060   0.0000   0.0000   0.0000   0.2252
  13.800   1.2216   0.05120   0.04652   0.0106  0.0274  1.0000  -7.4739   0.0000   0.0000   0.0000   0.2245
  13.900   1.2126   0.05327   0.04871   0.0110  0.0273  1.0000  -7.4377   0.0000   0.0000   0.0000   0.2240
  14.000   1.2033   0.05539   0.05095   0.0112  0.0272  1.0000  -7.3989   0.0000   0.0000   0.0000   0.2236
  14.100   1.1993   0.05676   0.05238   0.0113  0.0272  1.0000  -7.4243   0.0000   0.0000   0.0000   0.2233
  14.200   1.1954   0.05815   0.05384   0.0113  0.0271  1.0000  -7.4502   0.0000   0.0000   0.0000   0.2231
  14.300   1.1911   0.05963   0.05539   0.0112  0.0271  1.0000  -7.4708   0.0000   0.0000   0.0000   0.2229
  14.400   1.1864   0.06120   0.05704   0.0110  0.0270  1.0000  -7.4860   0.0000   0.0000   0.0000   0.2229
  14.500   1.1814   0.06286   0.05878   0.0106  0.0269  1.0000  -7.4963   0.0000   0.0000   0.0000   0.2229
  14.600   1.1759   0.06465   0.06064   0.0102  0.0269  1.0000  -7.4999   0.0000   0.0000   0.0000   0.2230
  14.700   1.1699   0.06657   0.06264   0.0096  0.0268  1.0000  -7.4958   0.0000   0.0000   0.0000   0.2233
  14.800   1.1634   0.06864   0.06478   0.0089  0.0268  1.0000  -7.4842   0.0000   0.0000   0.0000   0.2237
  14.900   1.1564   0.07086   0.06708   0.0080  0.0267  1.0000  -7.4634   0.0000   0.0000   0.0000   0.2242
  15.000   1.1486   0.07328   0.06957   0.0070  0.0267  1.0000  -7.4320   0.0000   0.0000   0.0000   0.2249


