xflr5 v6.61

 Calculated polar for: SG6041

 1 1 Reynolds number fixed          Mach number fixed         

 xtrf =   1.000 (top)        1.000 (bottom)
 Mach =   0.000     Re =     0.075 e 6     Ncrit =   9.000

  alpha     CL        CD       CDp       Cm    Top Xtr Bot Xtr   Cpmin    Chinge    XCp    
 ------- -------- --------- --------- -------- ------- ------- -------- --------- ---------
 -10.000  -0.4177   0.11460   0.10863  -0.0314  1.0000  0.1183  -1.4415   0.0000   0.0000   0.0000   0.1672
  -9.900  -0.4254   0.11433   0.10841  -0.0329  1.0000  0.1197  -1.4870   0.0000   0.0000   0.0000   0.1653
  -9.800  -0.4345   0.11421   0.10835  -0.0345  1.0000  0.1206  -1.5383   0.0000   0.0000   0.0000   0.1635
  -9.700  -0.4433   0.11393   0.10812  -0.0360  1.0000  0.1211  -1.5857   0.0000   0.0000   0.0000   0.1621
  -9.600  -0.4510   0.11347   0.10772  -0.0372  1.0000  0.1214  -1.6265   0.0000   0.0000   0.0000   0.1610
  -9.500  -0.4587   0.11284   0.10714  -0.0384  1.0000  0.1216  -1.6651   0.0000   0.0000   0.0000   0.1601
  -9.400  -0.4668   0.11210   0.10644  -0.0394  1.0000  0.1217  -1.7029   0.0000   0.0000   0.0000   0.1595
  -9.300  -0.4428   0.10605   0.10037  -0.0362  1.0000  0.1240  -1.5841   0.0000   0.0000   0.0000   0.1619
  -9.200  -0.4245   0.10357   0.09784  -0.0335  1.0000  0.1263  -1.4980   0.0000   0.0000   0.0000   0.1645
  -9.100  -0.4180   0.10216   0.09642  -0.0325  1.0000  0.1281  -1.4710   0.0000   0.0000   0.0000   0.1656
  -9.000  -0.4145   0.10092   0.09520  -0.0319  1.0000  0.1299  -1.4578   0.0000   0.0000   0.0000   0.1662
  -8.900  -0.4129   0.09975   0.09405  -0.0317  1.0000  0.1318  -1.4528   0.0000   0.0000   0.0000   0.1667
  -8.800  -0.4126   0.09862   0.09294  -0.0316  1.0000  0.1337  -1.4537   0.0000   0.0000   0.0000   0.1670
  -8.700  -0.4136   0.09752   0.09187  -0.0316  1.0000  0.1357  -1.4598   0.0000   0.0000   0.0000   0.1672
  -8.600  -0.4161   0.09648   0.09086  -0.0318  1.0000  0.1377  -1.4715   0.0000   0.0000   0.0000   0.1673
  -8.500  -0.4209   0.09554   0.08997  -0.0322  1.0000  0.1398  -1.4913   0.0000   0.0000   0.0000   0.1673
  -8.400  -0.4298   0.09487   0.08936  -0.0331  1.0000  0.1419  -1.5246   0.0000   0.0000   0.0000   0.1673
  -8.300  -0.4438   0.09451   0.08907  -0.0342  1.0000  0.1433  -1.5715   0.0000   0.0000   0.0000   0.1675
  -8.200  -0.4590   0.09413   0.08877  -0.0349  1.0000  0.1440  -1.6167   0.0000   0.0000   0.0000   0.1688
  -8.100  -0.4737   0.09361   0.08832  -0.0352  1.0000  0.1444  -1.6563   0.0000   0.0000   0.0000   0.1708
  -8.000  -0.4887   0.09317   0.08792  -0.0357  1.0000  0.1448  -1.7017   0.0000   0.0000   0.0000   0.1723
  -7.900  -0.5027   0.09289   0.08765  -0.0360  1.0000  0.1452  -1.7458   0.0000   0.0000   0.0000   0.1740
  -7.800  -0.5152   0.09263   0.08737  -0.0360  1.0000  0.1454  -1.7853   0.0000   0.0000   0.0000   0.1759
  -7.700  -0.5263   0.09232   0.08703  -0.0358  1.0000  0.1457  -1.8203   0.0000   0.0000   0.0000   0.1780
  -7.600  -0.4638   0.08528   0.08012  -0.0308  1.0000  0.1515  -1.6145   0.0000   0.0000   0.0000   0.1789
  -7.500  -0.4583   0.08418   0.07903  -0.0296  1.0000  0.1538  -1.5922   0.0000   0.0000   0.0000   0.1809
  -7.400  -0.4605   0.08325   0.07813  -0.0287  1.0000  0.1556  -1.5914   0.0000   0.0000   0.0000   0.1832
  -7.300  -0.4655   0.08235   0.07727  -0.0279  1.0000  0.1572  -1.5984   0.0000   0.0000   0.0000   0.1856
  -7.200  -0.4712   0.08136   0.07632  -0.0275  1.0000  0.1590  -1.6093   0.0000   0.0000   0.0000   0.1873
  -7.100  -0.4777   0.08034   0.07532  -0.0273  1.0000  0.1609  -1.6246   0.0000   0.0000   0.0000   0.1887
  -7.000  -0.4862   0.07937   0.07438  -0.0273  1.0000  0.1631  -1.6463   0.0000   0.0000   0.0000   0.1900
  -6.900  -0.4991   0.07865   0.07366  -0.0277  1.0000  0.1658  -1.6839   0.0000   0.0000   0.0000   0.1907
  -6.800  -0.5302   0.08008   0.07494  -0.0295  1.0000  0.1691  -1.7853   0.0000   0.0000   0.0000   0.1908
  -6.500  -0.5187   0.07334   0.06842  -0.0259  1.0000  0.1745  -1.7291   0.0000   0.0000   0.0000   0.1966
  -6.400  -0.5134   0.07224   0.06735  -0.0244  1.0000  0.1768  -1.7039   0.0000   0.0000   0.0000   0.1992
  -6.300  -0.5119   0.07125   0.06638  -0.0233  1.0000  0.1794  -1.6928   0.0000   0.0000   0.0000   0.2013
  -6.200  -0.5128   0.07025   0.06538  -0.0225  1.0000  0.1824  -1.6914   0.0000   0.0000   0.0000   0.2029
  -6.100  -0.5161   0.06927   0.06439  -0.0223  1.0000  0.1863  -1.7007   0.0000   0.0000   0.0000   0.2037
  -5.900  -0.5301   0.06675   0.06179  -0.0226  1.0000  0.1977  -1.7416   0.0000   0.0000   0.0000   0.2044
  -5.800  -0.5254   0.06547   0.06057  -0.0211  1.0000  0.1999  -1.7204   0.0000   0.0000   0.0000   0.2069
  -5.700  -0.5221   0.06440   0.05949  -0.0199  1.0000  0.2027  -1.7059   0.0000   0.0000   0.0000   0.2090
  -5.600  -0.5206   0.06340   0.05849  -0.0191  1.0000  0.2065  -1.6998   0.0000   0.0000   0.0000   0.2105
  -5.500  -0.5310   0.06265   0.05758  -0.0202  1.0000  0.2209  -1.7308   0.0000   0.0000   0.0000   0.2093
  -5.400  -0.5260   0.06112   0.05614  -0.0187  1.0000  0.2232  -1.7103   0.0000   0.0000   0.0000   0.2118
  -5.300  -0.5220   0.05999   0.05505  -0.0173  1.0000  0.2261  -1.6947   0.0000   0.0000   0.0000   0.2141
  -5.200  -0.5190   0.05899   0.05406  -0.0164  1.0000  0.2304  -1.6861   0.0000   0.0000   0.0000   0.2158
  -5.100  -0.4991   0.04949   0.04268  -0.0259  1.0000  0.0994  -2.2516   0.0000   0.0000   0.0000   0.1948
  -5.000  -0.4977   0.04685   0.04047  -0.0257  1.0000  0.1050  -2.1696   0.0000   0.0000   0.0000   0.1952
  -4.900  -0.4829   0.04491   0.03757  -0.0246  1.0000  0.0763  -2.4215   0.0000   0.0000   0.0000   0.1956
  -4.800  -0.4776   0.04238   0.03507  -0.0244  1.0000  0.0735  -2.4271   0.0000   0.0000   0.0000   0.1956
  -4.700  -0.4723   0.04063   0.03323  -0.0240  1.0000  0.0721  -2.4379   0.0000   0.0000   0.0000   0.1959
  -4.600  -0.4662   0.03920   0.03167  -0.0235  1.0000  0.0712  -2.4481   0.0000   0.0000   0.0000   0.1963
  -4.500  -0.4595   0.03801   0.03027  -0.0229  1.0000  0.0711  -2.4562   0.0000   0.0000   0.0000   0.1967
  -4.400  -0.4524   0.03701   0.02909  -0.0224  1.0000  0.0716  -2.4611   0.0000   0.0000   0.0000   0.1971
  -4.300  -0.4449   0.03617   0.02808  -0.0218  1.0000  0.0725  -2.4633   0.0000   0.0000   0.0000   0.1976
  -4.200  -0.4370   0.03554   0.02725  -0.0212  1.0000  0.0737  -2.4627   0.0000   0.0000   0.0000   0.1981
  -4.100  -0.4289   0.03518   0.02669  -0.0205  1.0000  0.0749  -2.4576   0.0000   0.0000   0.0000   0.1988
  -4.000  -0.4209   0.03473   0.02607  -0.0199  1.0000  0.0759  -2.4539   0.0000   0.0000   0.0000   0.1994
  -3.900  -0.4130   0.03326   0.02441  -0.0195  1.0000  0.0762  -2.4686   0.0000   0.0000   0.0000   0.1994
  -3.800  -0.4044   0.03211   0.02309  -0.0190  1.0000  0.0763  -2.4782   0.0000   0.0000   0.0000   0.1996
  -3.700  -0.3956   0.03098   0.02180  -0.0186  1.0000  0.0765  -2.4883   0.0000   0.0000   0.0000   0.1997
  -3.600  -0.3867   0.02973   0.02038  -0.0181  1.0000  0.0769  -2.5002   0.0000   0.0000   0.0000   0.1997
  -3.500  -0.3777   0.02848   0.01900  -0.0177  1.0000  0.0779  -2.5083   0.0000   0.0000   0.0000   0.1997
  -3.400  -0.3687   0.02742   0.01787  -0.0173  1.0000  0.0794  -2.5055   0.0000   0.0000   0.0000   0.1997
  -3.300  -0.3599   0.02661   0.01703  -0.0169  1.0000  0.0814  -2.4930   0.0000   0.0000   0.0000   0.1998
  -3.200  -0.3512   0.02600   0.01639  -0.0164  1.0000  0.0843  -2.4743   0.0000   0.0000   0.0000   0.2000
  -3.100  -0.3429   0.02564   0.01599  -0.0159  1.0000  0.0897  -2.4436   0.0000   0.0000   0.0000   0.2003
  -3.000  -0.3342   0.02539   0.01562  -0.0153  1.0000  0.0955  -2.4213   0.0000   0.0000   0.0000   0.2008
  -2.900  -0.3249   0.02475   0.01488  -0.0148  1.0000  0.0999  -2.4145   0.0000   0.0000   0.0000   0.2012
  -2.800  -0.3162   0.02377   0.01398  -0.0143  1.0000  0.1052  -2.3988   0.0000   0.0000   0.0000   0.2014
  -2.700  -0.3075   0.02325   0.01349  -0.0137  1.0000  0.1115  -2.3771   0.0000   0.0000   0.0000   0.2020
  -2.600  -0.2987   0.02293   0.01308  -0.0131  1.0000  0.1201  -2.3552   0.0000   0.0000   0.0000   0.2028
  -2.500  -0.2911   0.02223   0.01253  -0.0126  1.0000  0.1319  -2.3207   0.0000   0.0000   0.0000   0.2036
  -2.400  -0.2826   0.02192   0.01217  -0.0119  1.0000  0.1445  -2.2909   0.0000   0.0000   0.0000   0.2046
  -2.300  -0.2753   0.02130   0.01168  -0.0112  1.0000  0.1585  -2.2577   0.0000   0.0000   0.0000   0.2061
  -2.200  -0.2677   0.02086   0.01134  -0.0105  1.0000  0.1776  -2.2166   0.0000   0.0000   0.0000   0.2074
  -2.100  -0.2602   0.02039   0.01099  -0.0099  1.0000  0.2006  -2.1770   0.0000   0.0000   0.0000   0.2089
  -1.800  -0.1468   0.01864   0.01204  -0.0175  1.0000  1.0000  -1.6712   0.0000   0.0000   0.0000   0.1259
  -1.700  -0.1480   0.01850   0.01184  -0.0160  1.0000  1.0000  -1.6392   0.0000   0.0000   0.0000   0.1377
  -1.600  -0.1487   0.01837   0.01165  -0.0145  1.0000  1.0000  -1.6046   0.0000   0.0000   0.0000   0.1483
  -1.500  -0.1486   0.01827   0.01147  -0.0131  1.0000  1.0000  -1.5666   0.0000   0.0000   0.0000   0.1576
  -1.400  -0.1475   0.01818   0.01131  -0.0119  1.0000  1.0000  -1.5250   0.0000   0.0000   0.0000   0.1656
  -1.300  -0.1457   0.01812   0.01117  -0.0108  1.0000  1.0000  -1.4799   0.0000   0.0000   0.0000   0.1723
  -1.200  -0.1428   0.01809   0.01105  -0.0098  1.0000  1.0000  -1.4310   0.0000   0.0000   0.0000   0.1778
  -1.100  -0.1391   0.01808   0.01096  -0.0090  1.0000  1.0000  -1.3786   0.0000   0.0000   0.0000   0.1821
  -1.000  -0.1346   0.01809   0.01089  -0.0082  1.0000  1.0000  -1.3235   0.0000   0.0000   0.0000   0.1855
  -0.900  -0.1295   0.01813   0.01084  -0.0076  1.0000  1.0000  -1.2662   0.0000   0.0000   0.0000   0.1882
  -0.800  -0.1240   0.01818   0.01077  -0.0070  1.0000  1.0000  -1.2043   0.0000   0.0000   0.0000   0.1903
  -0.700  -0.1182   0.01824   0.01075  -0.0065  1.0000  1.0000  -1.1456   0.0000   0.0000   0.0000   0.1919
  -0.600  -0.1120   0.01832   0.01075  -0.0061  1.0000  1.0000  -1.0864   0.0000   0.0000   0.0000   0.1932
  -0.500  -0.1057   0.01840   0.01076  -0.0056  1.0000  1.0000  -1.0271   0.0000   0.0000   0.0000   0.1942
  -0.400  -0.0992   0.01850   0.01079  -0.0052  1.0000  1.0000  -0.9691   0.0000   0.0000   0.0000   0.1949
  -0.300  -0.0926   0.01861   0.01083  -0.0048  1.0000  1.0000  -0.9218   0.0000   0.0000   0.0000   0.1954
  -0.200  -0.0859   0.01873   0.01088  -0.0045  1.0000  1.0000  -0.8746   0.0000   0.0000   0.0000   0.1957
  -0.100  -0.0791   0.01886   0.01094  -0.0042  1.0000  1.0000  -0.8277   0.0000   0.0000   0.0000   0.1957
   0.000  -0.0723   0.01899   0.01101  -0.0038  1.0000  1.0000  -0.7812   0.0000   0.0000   0.0000   0.1954
   0.100  -0.0654   0.01913   0.01110  -0.0035  1.0000  1.0000  -0.7352   0.0000   0.0000   0.0000   0.1949
   0.200  -0.0585   0.01929   0.01120  -0.0032  1.0000  1.0000  -0.6896   0.0000   0.0000   0.0000   0.1939
   0.300  -0.0516   0.01944   0.01130  -0.0030  1.0000  1.0000  -0.6445   0.0000   0.0000   0.0000   0.1924
   0.400  -0.0314   0.01984   0.01163  -0.0052  0.9952  1.0000  -0.5653   0.0000   0.0000   0.0000   0.0851
   0.500  -0.0103   0.02037   0.01209  -0.0076  0.9909  1.0000  -0.4849   0.0000   0.0000   0.0000  -0.4773
   0.600   0.0066   0.02061   0.01226  -0.0092  0.9856  1.0000  -0.4384   0.0000   0.0000   0.0000   1.6154
   0.700   0.0245   0.02093   0.01253  -0.0109  0.9803  1.0000  -0.4016   0.0000   0.0000   0.0000   0.6888
   0.800   0.0448   0.02136   0.01290  -0.0131  0.9755  1.0000  -0.3663   0.0000   0.0000   0.0000   0.5368
   1.000   0.0794   0.02197   0.01343  -0.0162  0.9651  1.0000  -0.3933   0.0000   0.0000   0.0000   0.4502
   1.100   0.0957   0.02220   0.01363  -0.0176  0.9592  1.0000  -0.4083   0.0000   0.0000   0.0000   0.4297
   1.200   0.1160   0.02254   0.01394  -0.0196  0.9541  1.0000  -0.4262   0.0000   0.0000   0.0000   0.4155
   1.300   0.1399   0.02300   0.01437  -0.0223  0.9499  1.0000  -0.4468   0.0000   0.0000   0.0000   0.4060
   1.400   0.1506   0.02308   0.01443  -0.0226  0.9433  1.0000  -0.4592   0.0000   0.0000   0.0000   0.3963
   1.500   0.1649   0.02323   0.01456  -0.0234  0.9368  1.0000  -0.4750   0.0000   0.0000   0.0000   0.3887
   1.600   0.1850   0.02348   0.01479  -0.0253  0.9314  1.0000  -0.4953   0.0000   0.0000   0.0000   0.3835
   1.700   0.2098   0.02382   0.01511  -0.0280  0.9271  1.0000  -0.5199   0.0000   0.0000   0.0000   0.3802
   1.800   0.2204   0.02393   0.01521  -0.0282  0.9202  1.0000  -0.5350   0.0000   0.0000   0.0000   0.3744
   1.900   0.2334   0.02403   0.01530  -0.0287  0.9131  1.0000  -0.5524   0.0000   0.0000   0.0000   0.3697
   2.000   0.2543   0.02419   0.01547  -0.0306  0.9075  1.0000  -0.5768   0.0000   0.0000   0.0000   0.3670
   2.100   0.2806   0.02440   0.01568  -0.0334  0.9032  1.0000  -0.6063   0.0000   0.0000   0.0000   0.3656
   2.200   0.2889   0.02447   0.01576  -0.0331  0.8955  1.0000  -0.6200   0.0000   0.0000   0.0000   0.3610
   2.300   0.3029   0.02453   0.01582  -0.0336  0.8880  1.0000  -0.6388   0.0000   0.0000   0.0000   0.3576
   2.400   0.3259   0.02459   0.01590  -0.0357  0.8826  1.0000  -0.6660   0.0000   0.0000   0.0000   0.3560
   2.500   0.3543   0.02463   0.01597  -0.0386  0.8786  1.0000  -0.7027   0.0000   0.0000   0.0000   0.3555
   2.600   0.3572   0.02470   0.01606  -0.0373  0.8692  1.0000  -0.7137   0.0000   0.0000   0.0000   0.3508
   2.700   0.3746   0.02468   0.01606  -0.0383  0.8621  1.0000  -0.7399   0.0000   0.0000   0.0000   0.3486
   2.800   0.4006   0.02457   0.01599  -0.0406  0.8572  1.0000  -0.7768   0.0000   0.0000   0.0000   0.3477
   3.000   0.4281   0.02451   0.01599  -0.0412  0.8419  1.0000  -0.8307   0.0000   0.0000   0.0000   0.3426
   3.100   0.4515   0.02429   0.01581  -0.0429  0.8359  1.0000  -0.8704   0.0000   0.0000   0.0000   0.3414
   3.200   0.4831   0.02387   0.01545  -0.0459  0.8317  1.0000  -0.9210   0.0000   0.0000   0.0000   0.3412
   3.300   0.4907   0.02387   0.01548  -0.0450  0.8226  1.0000  -0.9412   0.0000   0.0000   0.0000   0.3380
   3.400   0.5080   0.02363   0.01528  -0.0457  0.8148  1.0000  -0.9744   0.0000   0.0000   0.0000   0.3360
   3.500   0.5385   0.02305   0.01478  -0.0482  0.8100  1.0000  -1.0250   0.0000   0.0000   0.0000   0.3356
   3.600   0.5728   0.02234   0.01422  -0.0513  0.8063  1.0000  -1.0883   0.0000   0.0000   0.0000   0.3355
   3.700   0.5713   0.02250   0.01438  -0.0489  0.7941  1.0000  -1.0996   0.0000   0.0000   0.0000   0.3316
   3.800   0.5954   0.02194   0.01389  -0.0503  0.7877  1.0000  -1.1508   0.0000   0.0000   0.0000   0.3304
   3.900   0.6263   0.02114   0.01317  -0.0525  0.7829  1.0000  -1.2135   0.0000   0.0000   0.0000   0.3298
   4.000   0.6288   0.02117   0.01322  -0.0507  0.7708  1.0000  -1.2318   0.0000   0.0000   0.0000   0.3264
   4.100   0.6516   0.02055   0.01267  -0.0517  0.7631  1.0000  -1.2827   0.0000   0.0000   0.0000   0.3251
   4.200   0.6723   0.02000   0.01217  -0.0524  0.7548  1.0000  -1.3308   0.0000   0.0000   0.0000   0.3236
   4.300   0.6823   0.01976   0.01196  -0.0515  0.7425  1.0000  -1.3618   0.0000   0.0000   0.0000   0.3211
   4.400   0.7074   0.01903   0.01128  -0.0527  0.7335  1.0000  -1.4181   0.0000   0.0000   0.0000   0.3201
   4.500   0.7132   0.01895   0.01123  -0.0513  0.7191  1.0000  -1.4426   0.0000   0.0000   0.0000   0.3173
   4.600   0.7311   0.01850   0.01087  -0.0515  0.7064  1.0000  -1.4874   0.0000   0.0000   0.0000   0.3158
   4.700   0.7434   0.01824   0.01062  -0.0510  0.6910  1.0000  -1.5232   0.0000   0.0000   0.0000   0.3138
   4.800   0.7539   0.01807   0.01046  -0.0502  0.6741  1.0000  -1.5613   0.0000   0.0000   0.0000   0.3118
   4.900   0.7672   0.01785   0.01021  -0.0498  0.6562  1.0000  -1.6060   0.0000   0.0000   0.0000   0.3100
   5.000   0.7801   0.01769   0.00998  -0.0494  0.6365  1.0000  -1.6548   0.0000   0.0000   0.0000   0.3083
   5.100   0.7910   0.01762   0.00982  -0.0487  0.6146  1.0000  -1.7022   0.0000   0.0000   0.0000   0.3064
   5.300   0.8083   0.01775   0.00974  -0.0468  0.5662  1.0000  -1.7865   0.0000   0.0000   0.0000   0.3025
   5.400   0.8157   0.01791   0.00978  -0.0457  0.5405  1.0000  -1.8258   0.0000   0.0000   0.0000   0.3006
   5.500   0.8226   0.01813   0.00986  -0.0446  0.5145  1.0000  -1.8639   0.0000   0.0000   0.0000   0.2987
   5.600   0.8292   0.01840   0.00998  -0.0435  0.4888  1.0000  -1.9013   0.0000   0.0000   0.0000   0.2968
   5.700   0.8357   0.01871   0.01014  -0.0424  0.4637  1.0000  -1.9381   0.0000   0.0000   0.0000   0.2951
   5.800   0.8420   0.01906   0.01033  -0.0414  0.4394  1.0000  -1.9743   0.0000   0.0000   0.0000   0.2933
   5.900   0.8482   0.01944   0.01054  -0.0404  0.4163  1.0000  -2.0142   0.0000   0.0000   0.0000   0.2917
   6.000   0.8545   0.01984   0.01077  -0.0394  0.3947  1.0000  -2.0564   0.0000   0.0000   0.0000   0.2901
   6.100   0.8610   0.02027   0.01108  -0.0386  0.3747  1.0000  -2.0995   0.0000   0.0000   0.0000   0.2886
   6.200   0.8670   0.02066   0.01140  -0.0376  0.3553  1.0000  -2.1398   0.0000   0.0000   0.0000   0.2872
   6.300   0.8739   0.02110   0.01174  -0.0369  0.3376  1.0000  -2.1823   0.0000   0.0000   0.0000   0.2858
   6.400   0.8818   0.02160   0.01209  -0.0363  0.3222  1.0000  -2.2276   0.0000   0.0000   0.0000   0.2847
   6.500   0.8892   0.02204   0.01245  -0.0356  0.3074  1.0000  -2.2711   0.0000   0.0000   0.0000   0.2835
   6.600   0.8971   0.02254   0.01289  -0.0351  0.2936  1.0000  -2.3152   0.0000   0.0000   0.0000   0.2824
   6.700   0.9052   0.02302   0.01323  -0.0346  0.2812  1.0000  -2.3620   0.0000   0.0000   0.0000   0.2814
   6.800   0.9128   0.02348   0.01371  -0.0340  0.2689  1.0000  -2.4046   0.0000   0.0000   0.0000   0.2803
   6.900   0.9207   0.02395   0.01405  -0.0335  0.2581  1.0000  -2.4518   0.0000   0.0000   0.0000   0.2794
   7.000   0.9285   0.02444   0.01455  -0.0329  0.2473  1.0000  -2.4952   0.0000   0.0000   0.0000   0.2784
   7.100   0.9361   0.02486   0.01491  -0.0324  0.2376  1.0000  -2.5407   0.0000   0.0000   0.0000   0.2774
   7.200   0.9458   0.02552   0.01547  -0.0322  0.2288  1.0000  -2.5899   0.0000   0.0000   0.0000   0.2768
   7.300   0.9538   0.02597   0.01602  -0.0316  0.2206  1.0000  -2.6313   0.0000   0.0000   0.0000   0.2758
   7.400   0.9630   0.02649   0.01648  -0.0314  0.2133  1.0000  -2.6795   0.0000   0.0000   0.0000   0.2750
   7.500   0.9742   0.02734   0.01723  -0.0315  0.2063  1.0000  -2.7302   0.0000   0.0000   0.0000   0.2747
   7.600   0.9821   0.02784   0.01788  -0.0309  0.2001  1.0000  -2.7728   0.0000   0.0000   0.0000   0.2737
   7.700   0.9908   0.02837   0.01850  -0.0305  0.1939  1.0000  -2.8255   0.0000   0.0000   0.0000   0.2729
   7.800   1.0008   0.02900   0.01902  -0.0304  0.1879  1.0000  -2.8866   0.0000   0.0000   0.0000   0.2724
   7.900   1.0103   0.02986   0.01990  -0.0302  0.1821  1.0000  -2.9394   0.0000   0.0000   0.0000   0.2719
   8.000   1.0166   0.03028   0.02048  -0.0294  0.1766  1.0000  -2.9832   0.0000   0.0000   0.0000   0.2708
   8.100   1.0240   0.03072   0.02096  -0.0288  0.1709  1.0000  -3.0348   0.0000   0.0000   0.0000   0.2699
   8.200   1.0331   0.03129   0.02145  -0.0286  0.1658  1.0000  -3.0951   0.0000   0.0000   0.0000   0.2693
   8.300   1.0448   0.03264   0.02273  -0.0290  0.1610  1.0000  -3.1516   0.0000   0.0000   0.0000   0.2692
   8.400   1.0513   0.03321   0.02351  -0.0281  0.1578  1.0000  -3.1893   0.0000   0.0000   0.0000   0.2682
   8.500   1.0583   0.03385   0.02432  -0.0274  0.1540  1.0000  -3.2295   0.0000   0.0000   0.0000   0.2672
   8.600   1.0651   0.03445   0.02502  -0.0268  0.1498  1.0000  -3.2734   0.0000   0.0000   0.0000   0.2663
   8.700   1.0727   0.03497   0.02553  -0.0263  0.1455  1.0000  -3.3265   0.0000   0.0000   0.0000   0.2656
   8.800   1.0824   0.03583   0.02626  -0.0264  0.1409  1.0000  -3.3903   0.0000   0.0000   0.0000   0.2653
   8.900   1.0885   0.03701   0.02754  -0.0258  0.1372  1.0000  -3.4258   0.0000   0.0000   0.0000   0.2646
   9.000   1.0928   0.03755   0.02829  -0.0247  0.1341  1.0000  -3.4628   0.0000   0.0000   0.0000   0.2634
   9.100   1.0983   0.03835   0.02926  -0.0239  0.1312  1.0000  -3.5031   0.0000   0.0000   0.0000   0.2624
   9.200   1.1043   0.03920   0.03025  -0.0232  0.1283  1.0000  -3.5461   0.0000   0.0000   0.0000   0.2615
   9.300   1.1101   0.04005   0.03120  -0.0225  0.1257  1.0000  -3.5904   0.0000   0.0000   0.0000   0.2606
   9.400   1.1163   0.04089   0.03210  -0.0219  0.1232  1.0000  -3.6390   0.0000   0.0000   0.0000   0.2599
   9.500   1.1237   0.04185   0.03307  -0.0215  0.1207  1.0000  -3.6936   0.0000   0.0000   0.0000   0.2593
   9.600   1.1312   0.04345   0.03471  -0.0214  0.1182  1.0000  -3.7440   0.0000   0.0000   0.0000   0.2590
   9.700   1.1335   0.04556   0.03694  -0.0207  0.1163  1.0000  -3.7595   0.0000   0.0000   0.0000   0.2582
   9.800   1.1342   0.04623   0.03785  -0.0192  0.1150  1.0000  -3.7781   0.0000   0.0000   0.0000   0.2568
   9.900   1.1344   0.04708   0.03892  -0.0178  0.1133  1.0000  -3.7938   0.0000   0.0000   0.0000   0.2554
  10.000   1.1344   0.04802   0.04006  -0.0164  0.1115  1.0000  -3.8088   0.0000   0.0000   0.0000   0.2541
  10.100   1.1344   0.04900   0.04121  -0.0151  0.1096  1.0000  -3.8256   0.0000   0.0000   0.0000   0.2529
  10.200   1.1349   0.04997   0.04232  -0.0140  0.1076  1.0000  -3.8461   0.0000   0.0000   0.0000   0.2518
  10.300   1.1360   0.05094   0.04340  -0.0129  0.1057  1.0000  -3.8846   0.0000   0.0000   0.0000   0.2507
  10.400   1.1374   0.05198   0.04454  -0.0119  0.1042  1.0000  -3.9267   0.0000   0.0000   0.0000   0.2497
  10.500   1.1380   0.05318   0.04585  -0.0109  0.1031  1.0000  -3.9614   0.0000   0.0000   0.0000   0.2487
  10.600   1.1388   0.05438   0.04714  -0.0100  0.1020  1.0000  -3.9982   0.0000   0.0000   0.0000   0.2478
  10.700   1.1388   0.05562   0.04847  -0.0090  0.1012  1.0000  -4.0300   0.0000   0.0000   0.0000   0.2468
  10.800   1.1376   0.05691   0.04986  -0.0079  0.1004  1.0000  -4.0550   0.0000   0.0000   0.0000   0.2458
  10.900   1.1358   0.05825   0.05129  -0.0068  0.0998  1.0000  -4.0765   0.0000   0.0000   0.0000   0.2447
  11.000   1.1332   0.05964   0.05277  -0.0057  0.0992  1.0000  -4.0932   0.0000   0.0000   0.0000   0.2437
  11.100   1.1296   0.06108   0.05431  -0.0046  0.0988  1.0000  -4.1032   0.0000   0.0000   0.0000   0.2426
  11.200   1.1245   0.06254   0.05586  -0.0034  0.0985  1.0000  -4.1042   0.0000   0.0000   0.0000   0.2414
  11.300   1.1174   0.06396   0.05737  -0.0019  0.0984  1.0000  -4.0940   0.0000   0.0000   0.0000   0.2400
  11.400   1.1085   0.06539   0.05891  -0.0004  0.0984  1.0000  -4.0735   0.0000   0.0000   0.0000   0.2385
  11.500   1.0976   0.06689   0.06050   0.0012  0.0986  1.0000  -4.0402   0.0000   0.0000   0.0000   0.2370
  11.600   1.0839   0.06852   0.06225   0.0026  0.0990  1.0000  -3.9881   0.0000   0.0000   0.0000   0.2356
  11.700   1.0665   0.07045   0.06429   0.0038  0.0997  1.0000  -3.9100   0.0000   0.0000   0.0000   0.2343
  11.800   1.0168   0.07454   0.06860   0.0045  0.1032  1.0000  -3.6211   0.0000   0.0000   0.0000   0.2334
  11.900   0.9892   0.07821   0.07236   0.0037  0.1050  1.0000  -3.4659   0.0000   0.0000   0.0000   0.2340
  12.000   0.9644   0.08224   0.07638   0.0020  0.1067  1.0000  -3.3335   0.0000   0.0000   0.0000   0.2355
  12.100   0.9415   0.08668   0.08085  -0.0003  0.1084  1.0000  -3.2180   0.0000   0.0000   0.0000   0.2378
  12.200   0.9214   0.09146   0.08563  -0.0031  0.1102  1.0000  -3.1056   0.0000   0.0000   0.0000   0.2407
  12.300   0.9057   0.09610   0.09027  -0.0057  0.1118  1.0000  -3.0090   0.0000   0.0000   0.0000   0.2436
  12.400   0.8934   0.10052   0.09467  -0.0082  0.1130  1.0000  -2.9269   0.0000   0.0000   0.0000   0.2464
  12.500   0.8836   0.10474   0.09888  -0.0104  0.1138  1.0000  -2.8555   0.0000   0.0000   0.0000   0.2490
  12.600   0.8758   0.10875   0.10288  -0.0124  0.1145  1.0000  -2.7936   0.0000   0.0000   0.0000   0.2513
  12.700   0.8699   0.11242   0.10653  -0.0141  0.1150  1.0000  -2.7435   0.0000   0.0000   0.0000   0.2533
  12.800   0.8659   0.11572   0.10983  -0.0154  0.1155  1.0000  -2.7064   0.0000   0.0000   0.0000   0.2548
  12.900   0.8650   0.11856   0.11267  -0.0161  0.1160  1.0000  -2.6899   0.0000   0.0000   0.0000   0.2556
  13.000   0.8676   0.12098   0.11511  -0.0161  0.1165  1.0000  -2.6968   0.0000   0.0000   0.0000   0.2554
  13.200   0.7645   0.15185   0.14562  -0.0415  0.2032  1.0000  -1.6939   0.0000   0.0000   0.0000   0.2922
  13.300   0.7589   0.15300   0.14675  -0.0427  0.1993  1.0000  -1.6678   0.0000   0.0000   0.0000   0.2941
  13.400   0.7607   0.15422   0.14798  -0.0430  0.1947  1.0000  -1.6761   0.0000   0.0000   0.0000   0.2943
  13.500   0.7853   0.15542   0.14933  -0.0404  0.1878  1.0000  -1.7973   0.0000   0.0000   0.0000   0.2890
  13.600   0.8161   0.15938   0.15342  -0.0373  0.1854  1.0000  -1.9283   0.0000   0.0000   0.0000   0.2833
  13.700   0.8241   0.16354   0.15760  -0.0372  0.1845  1.0000  -1.9493   0.0000   0.0000   0.0000   0.2827
  13.800   0.8140   0.16477   0.15878  -0.0392  0.1842  1.0000  -1.8973   0.0000   0.0000   0.0000   0.2856
  13.900   0.8010   0.16553   0.15948  -0.0416  0.1836  1.0000  -1.8328   0.0000   0.0000   0.0000   0.2892
  14.000   0.7829   0.16552   0.15941  -0.0445  0.1820  1.0000  -1.7472   0.0000   0.0000   0.0000   0.2939
  14.100   0.7719   0.16596   0.15981  -0.0465  0.1788  1.0000  -1.6937   0.0000   0.0000   0.0000   0.2972
  14.200   0.7699   0.16718   0.16102  -0.0474  0.1758  1.0000  -1.6791   0.0000   0.0000   0.0000   0.2985
  14.300   0.7709   0.16859   0.16244  -0.0481  0.1732  1.0000  -1.6781   0.0000   0.0000   0.0000   0.2991
  14.400   0.7738   0.17007   0.16393  -0.0485  0.1707  1.0000  -1.6860   0.0000   0.0000   0.0000   0.2992
  14.500   0.7786   0.17164   0.16552  -0.0486  0.1685  1.0000  -1.7031   0.0000   0.0000   0.0000   0.2989
  14.600   0.7862   0.17343   0.16735  -0.0484  0.1664  1.0000  -1.7325   0.0000   0.0000   0.0000   0.2979
  14.700   0.7987   0.17585   0.16981  -0.0476  0.1645  1.0000  -1.7829   0.0000   0.0000   0.0000   0.2959
  14.800   0.8201   0.17992   0.17398  -0.0457  0.1628  1.0000  -1.8725   0.0000   0.0000   0.0000   0.2919
  14.900   0.8360   0.18598   0.18008  -0.0446  0.1615  1.0000  -1.9613   0.0000   0.0000   0.0000   0.2895
  15.000   0.8285   0.18676   0.18083  -0.0464  0.1612  1.0000  -1.9124   0.0000   0.0000   0.0000   0.2921


