xflr5 v6.61

 Calculated polar for: SG6041

 1 1 Reynolds number fixed          Mach number fixed         

 xtrf =   1.000 (top)        1.000 (bottom)
 Mach =   0.000     Re =     0.025 e 6     Ncrit =   9.000

  alpha     CL        CD       CDp       Cm    Top Xtr Bot Xtr   Cpmin    Chinge    XCp    
 ------- -------- --------- --------- -------- ------- ------- -------- --------- ---------
 -10.000  -0.3658   0.12672   0.11635  -0.0004  1.0000  0.5832  -1.1919   0.0000   0.0000   0.0000   0.2388
  -9.900  -0.3397   0.12098   0.11058  -0.0022  1.0000  0.5977  -1.1779   0.0000   0.0000   0.0000   0.2327
  -9.800  -0.3532   0.12316   0.11281  -0.0001  1.0000  0.6070  -1.1936   0.0000   0.0000   0.0000   0.2395
  -9.700  -0.3308   0.11803   0.10766  -0.0019  1.0000  0.6179  -1.1843   0.0000   0.0000   0.0000   0.2335
  -9.600  -0.3376   0.11900   0.10867  -0.0003  1.0000  0.6300  -1.1947   0.0000   0.0000   0.0000   0.2386
  -9.500  -0.3253   0.11571   0.10538  -0.0012  1.0000  0.6375  -1.1937   0.0000   0.0000   0.0000   0.2354
  -9.400  -0.3193   0.11432   0.10399  -0.0011  1.0000  0.6503  -1.1959   0.0000   0.0000   0.0000   0.2356
  -9.300  -0.3227   0.11412   0.10384  -0.0001  1.0000  0.6582  -1.2050   0.0000   0.0000   0.0000   0.2390
  -9.200  -0.3069   0.11072   0.10041  -0.0014  1.0000  0.6684  -1.2018   0.0000   0.0000   0.0000   0.2343
  -9.100  -0.3199   0.11286   0.10261   0.0012  1.0000  0.6800  -1.2161   0.0000   0.0000   0.0000   0.2430
  -9.000  -0.3001   0.10818   0.09791  -0.0010  1.0000  0.6872  -1.2116   0.0000   0.0000   0.0000   0.2355
  -8.900  -0.2951   0.10696   0.09669  -0.0009  1.0000  0.6991  -1.2153   0.0000   0.0000   0.0000   0.2358
  -8.800  -0.2984   0.10675   0.09653   0.0002  1.0000  0.7070  -1.2245   0.0000   0.0000   0.0000   0.2397
  -8.700  -0.2836   0.10348   0.09324  -0.0013  1.0000  0.7147  -1.2235   0.0000   0.0000   0.0000   0.2339
  -8.600  -0.2887   0.10415   0.09394   0.0004  1.0000  0.7280  -1.2330   0.0000   0.0000   0.0000   0.2400
  -8.500  -0.2762   0.10098   0.09077  -0.0010  1.0000  0.7351  -1.2338   0.0000   0.0000   0.0000   0.2349
  -8.400  -0.2694   0.09954   0.08933  -0.0011  1.0000  0.7489  -1.2368   0.0000   0.0000   0.0000   0.2340
  -8.300  -0.2685   0.09861   0.08843  -0.0006  1.0000  0.7571  -1.2440   0.0000   0.0000   0.0000   0.2360
  -8.200  -0.2548   0.09579   0.08559  -0.0021  1.0000  0.7676  -1.2440   0.0000   0.0000   0.0000   0.2295
  -8.100  -0.2652   0.09732   0.08716   0.0004  1.0000  0.7785  -1.2567   0.0000   0.0000   0.0000   0.2399
  -8.000  -0.2512   0.09381   0.08366  -0.0015  1.0000  0.7826  -1.2576   0.0000   0.0000   0.0000   0.2319
  -7.900  -0.2452   0.09203   0.08188  -0.0021  1.0000  0.7851  -1.2626   0.0000   0.0000   0.0000   0.2292
  -7.800  -0.2432   0.09085   0.08072  -0.0021  1.0000  0.7856  -1.2698   0.0000   0.0000   0.0000   0.2292
  -7.300  -0.3601   0.09232   0.08281  -0.0038  1.0000  0.4972  -1.4584   0.0000   0.0000   0.0000   0.2328
  -7.200  -0.3881   0.09175   0.08241  -0.0062  1.0000  0.4437  -1.5203   0.0000   0.0000   0.0000   0.2282
  -7.100  -0.4030   0.09022   0.08097  -0.0089  1.0000  0.4010  -1.5720   0.0000   0.0000   0.0000   0.2227
  -7.000  -0.4166   0.08902   0.07987  -0.0100  1.0000  0.3779  -1.6130   0.0000   0.0000   0.0000   0.2208
  -6.900  -0.4348   0.08841   0.07941  -0.0099  1.0000  0.3691  -1.6492   0.0000   0.0000   0.0000   0.2226
  -6.800  -0.4412   0.08664   0.07769  -0.0111  1.0000  0.3487  -1.6835   0.0000   0.0000   0.0000   0.2203
  -6.700  -0.4633   0.08601   0.07722  -0.0117  1.0000  0.3428  -1.7287   0.0000   0.0000   0.0000   0.2207
  -6.600  -0.4614   0.08358   0.07479  -0.0133  1.0000  0.3234  -1.7568   0.0000   0.0000   0.0000   0.2171
  -6.500  -0.4855   0.08281   0.07415  -0.0147  1.0000  0.3173  -1.8135   0.0000   0.0000   0.0000   0.2159
  -6.400  -0.4752   0.08019   0.07149  -0.0155  1.0000  0.3015  -1.8254   0.0000   0.0000   0.0000   0.2136
  -6.300  -0.4937   0.07883   0.07021  -0.0171  1.0000  0.2943  -1.8809   0.0000   0.0000   0.0000   0.2117
  -6.200  -0.4895   0.07688   0.06822  -0.0177  1.0000  0.2838  -1.8985   0.0000   0.0000   0.0000   0.2103
  -6.100  -0.4926   0.07503   0.06639  -0.0183  1.0000  0.2765  -1.9255   0.0000   0.0000   0.0000   0.2094
  -6.000  -0.5102   0.07346   0.06486  -0.0207  1.0000  0.2686  -1.9943   0.0000   0.0000   0.0000   0.2062
  -5.900  -0.5042   0.07162   0.06298  -0.0206  1.0000  0.2620  -2.0030   0.0000   0.0000   0.0000   0.2058
  -5.800  -0.5021   0.06980   0.06109  -0.0206  1.0000  0.2568  -2.0172   0.0000   0.0000   0.0000   0.2057
  -5.700  -0.5045   0.06793   0.05917  -0.0214  1.0000  0.2511  -2.0481   0.0000   0.0000   0.0000   0.2045
  -5.600  -0.5141   0.06634   0.05732  -0.0242  1.0000  0.2420  -2.1263   0.0000   0.0000   0.0000   0.1998
  -5.500  -0.5078   0.06445   0.05548  -0.0236  1.0000  0.2392  -2.1243   0.0000   0.0000   0.0000   0.2005
  -5.400  -0.5037   0.06272   0.05366  -0.0234  1.0000  0.2362  -2.1327   0.0000   0.0000   0.0000   0.2006
  -5.300  -0.5006   0.06102   0.05189  -0.0234  1.0000  0.2329  -2.1475   0.0000   0.0000   0.0000   0.2002
  -5.200  -0.4978   0.05927   0.05004  -0.0237  1.0000  0.2294  -2.1681   0.0000   0.0000   0.0000   0.1993
  -5.100  -0.4952   0.05746   0.04806  -0.0244  1.0000  0.2254  -2.1966   0.0000   0.0000   0.0000   0.1978
  -5.000  -0.4919   0.05573   0.04599  -0.0255  1.0000  0.2206  -2.2393   0.0000   0.0000   0.0000   0.1952
  -4.900  -0.4864   0.05445   0.04437  -0.0259  1.0000  0.2176  -2.2672   0.0000   0.0000   0.0000   0.1937
  -4.800  -0.4801   0.05286   0.04270  -0.0257  1.0000  0.2166  -2.2730   0.0000   0.0000   0.0000   0.1935
  -4.700  -0.4737   0.05136   0.04107  -0.0255  1.0000  0.2160  -2.2809   0.0000   0.0000   0.0000   0.1931
  -4.600  -0.4673   0.04996   0.03950  -0.0255  1.0000  0.2163  -2.2906   0.0000   0.0000   0.0000   0.1925
  -4.500  -0.4606   0.04868   0.03798  -0.0254  1.0000  0.2173  -2.3013   0.0000   0.0000   0.0000   0.1918
  -4.400  -0.4538   0.04722   0.03646  -0.0251  1.0000  0.2198  -2.3003   0.0000   0.0000   0.0000   0.1916
  -4.300  -0.4472   0.04594   0.03528  -0.0243  1.0000  0.2249  -2.2805   0.0000   0.0000   0.0000   0.1926
  -4.200  -0.4399   0.04480   0.03405  -0.0239  1.0000  0.2290  -2.2749   0.0000   0.0000   0.0000   0.1926
  -4.100  -0.4317   0.04364   0.03272  -0.0237  1.0000  0.2324  -2.2755   0.0000   0.0000   0.0000   0.1920
  -4.000  -0.4228   0.04247   0.03132  -0.0236  1.0000  0.2352  -2.2791   0.0000   0.0000   0.0000   0.1911
  -3.900  -0.4130   0.04129   0.02988  -0.0236  1.0000  0.2375  -2.2839   0.0000   0.0000   0.0000   0.1898
  -3.800  -0.4027   0.04018   0.02846  -0.0235  1.0000  0.2401  -2.2890   0.0000   0.0000   0.0000   0.1885
  -3.700  -0.3929   0.03908   0.02713  -0.0233  1.0000  0.2437  -2.2899   0.0000   0.0000   0.0000   0.1876
  -3.600  -0.3845   0.03799   0.02612  -0.0226  1.0000  0.2527  -2.2675   0.0000   0.0000   0.0000   0.1880
  -3.400  -0.1363   0.02923   0.01925  -0.0396  1.0000  1.0000  -1.9414   0.0000   0.0000   0.0000  -0.0498
  -3.300  -0.1407   0.02881   0.01866  -0.0384  1.0000  1.0000  -1.9418   0.0000   0.0000   0.0000  -0.0314
  -3.200  -0.1427   0.02851   0.01816  -0.0372  1.0000  1.0000  -1.9287   0.0000   0.0000   0.0000  -0.0186
  -3.100  -0.1436   0.02826   0.01774  -0.0359  1.0000  1.0000  -1.9074   0.0000   0.0000   0.0000  -0.0082
  -3.000  -0.1438   0.02806   0.01736  -0.0347  1.0000  1.0000  -1.8813   0.0000   0.0000   0.0000   0.0010
  -2.900  -0.1436   0.02788   0.01701  -0.0334  1.0000  1.0000  -1.8521   0.0000   0.0000   0.0000   0.0097
  -2.800  -0.1432   0.02771   0.01669  -0.0322  1.0000  1.0000  -1.8208   0.0000   0.0000   0.0000   0.0182
  -2.700  -0.1427   0.02755   0.01639  -0.0309  1.0000  1.0000  -1.7878   0.0000   0.0000   0.0000   0.0264
  -2.600  -0.1420   0.02741   0.01611  -0.0297  1.0000  1.0000  -1.7535   0.0000   0.0000   0.0000   0.0345
  -2.500  -0.1412   0.02728   0.01584  -0.0284  1.0000  1.0000  -1.7180   0.0000   0.0000   0.0000   0.0425
  -2.400  -0.1403   0.02715   0.01559  -0.0271  1.0000  1.0000  -1.6816   0.0000   0.0000   0.0000   0.0504
  -2.300  -0.1392   0.02703   0.01534  -0.0259  1.0000  1.0000  -1.6441   0.0000   0.0000   0.0000   0.0581
  -2.200  -0.1379   0.02692   0.01510  -0.0246  1.0000  1.0000  -1.6056   0.0000   0.0000   0.0000   0.0655
  -2.100  -0.1364   0.02682   0.01488  -0.0234  1.0000  1.0000  -1.5660   0.0000   0.0000   0.0000   0.0726
  -2.000  -0.1346   0.02673   0.01466  -0.0222  1.0000  1.0000  -1.5253   0.0000   0.0000   0.0000   0.0793
  -1.900  -0.1326   0.02665   0.01446  -0.0211  1.0000  1.0000  -1.4835   0.0000   0.0000   0.0000   0.0855
  -1.800  -0.1303   0.02657   0.01426  -0.0200  1.0000  1.0000  -1.4405   0.0000   0.0000   0.0000   0.0913
  -1.700  -0.1277   0.02651   0.01407  -0.0189  1.0000  1.0000  -1.3965   0.0000   0.0000   0.0000   0.0967
  -1.600  -0.1249   0.02646   0.01389  -0.0179  1.0000  1.0000  -1.3515   0.0000   0.0000   0.0000   0.1018
  -1.500  -0.1217   0.02641   0.01372  -0.0169  1.0000  1.0000  -1.3054   0.0000   0.0000   0.0000   0.1063
  -1.400  -0.1182   0.02638   0.01357  -0.0160  1.0000  1.0000  -1.2582   0.0000   0.0000   0.0000   0.1104
  -1.300  -0.1144   0.02636   0.01342  -0.0151  1.0000  1.0000  -1.2129   0.0000   0.0000   0.0000   0.1138
  -1.200  -0.1103   0.02635   0.01329  -0.0142  1.0000  1.0000  -1.1732   0.0000   0.0000   0.0000   0.1167
  -1.100  -0.1059   0.02635   0.01317  -0.0134  1.0000  1.0000  -1.1331   0.0000   0.0000   0.0000   0.1189
  -1.000  -0.1011   0.02636   0.01300  -0.0127  1.0000  1.0000  -1.0923   0.0000   0.0000   0.0000   0.1205
  -0.900  -0.0961   0.02637   0.01291  -0.0120  1.0000  1.0000  -1.0504   0.0000   0.0000   0.0000   0.1215
  -0.800  -0.0909   0.02640   0.01282  -0.0113  1.0000  1.0000  -1.0081   0.0000   0.0000   0.0000   0.1218
  -0.700  -0.0855   0.02644   0.01275  -0.0107  1.0000  1.0000  -0.9654   0.0000   0.0000   0.0000   0.1215
  -0.600  -0.0799   0.02649   0.01268  -0.0101  1.0000  1.0000  -0.9225   0.0000   0.0000   0.0000   0.1204
  -0.500  -0.0741   0.02654   0.01263  -0.0095  1.0000  1.0000  -0.8795   0.0000   0.0000   0.0000   0.1184
  -0.400  -0.0682   0.02660   0.01259  -0.0090  1.0000  1.0000  -0.8365   0.0000   0.0000   0.0000   0.1154
  -0.300  -0.0621   0.02667   0.01257  -0.0084  1.0000  1.0000  -0.7934   0.0000   0.0000   0.0000   0.1112
  -0.200  -0.0560   0.02675   0.01255  -0.0079  1.0000  1.0000  -0.7505   0.0000   0.0000   0.0000   0.1054
  -0.100  -0.0497   0.02684   0.01255  -0.0075  1.0000  1.0000  -0.7077   0.0000   0.0000   0.0000   0.0974
   0.000  -0.0434   0.02693   0.01255  -0.0070  1.0000  1.0000  -0.6651   0.0000   0.0000   0.0000   0.0864
   0.100  -0.0370   0.02703   0.01257  -0.0066  1.0000  1.0000  -0.6228   0.0000   0.0000   0.0000   0.0707
   0.200  -0.0305   0.02714   0.01260  -0.0062  1.0000  1.0000  -0.5807   0.0000   0.0000   0.0000   0.0476
   0.300  -0.0240   0.02726   0.01263  -0.0058  1.0000  1.0000  -0.5390   0.0000   0.0000   0.0000   0.0108
   0.400  -0.0174   0.02738   0.01268  -0.0054  1.0000  1.0000  -0.4987   0.0000   0.0000   0.0000  -0.0549
   0.500  -0.0108   0.02751   0.01274  -0.0050  1.0000  1.0000  -0.4708   0.0000   0.0000   0.0000  -0.2025
   0.600  -0.0042   0.02765   0.01277  -0.0046  1.0000  1.0000  -0.4448   0.0000   0.0000   0.0000  -0.8178
   0.700   0.0024   0.02780   0.01285  -0.0043  1.0000  1.0000  -0.4217   0.0000   0.0000   0.0000   1.9640
   0.800   0.0091   0.02795   0.01295  -0.0040  1.0000  1.0000  -0.4006   0.0000   0.0000   0.0000   0.6652
   0.900   0.0157   0.02811   0.01305  -0.0036  1.0000  1.0000  -0.3816   0.0000   0.0000   0.0000   0.4665
   1.000   0.0224   0.02828   0.01316  -0.0033  1.0000  1.0000  -0.3633   0.0000   0.0000   0.0000   0.3866
   1.100   0.0290   0.02845   0.01329  -0.0030  1.0000  1.0000  -0.3705   0.0000   0.0000   0.0000   0.3437
   1.200   0.0357   0.02864   0.01342  -0.0027  1.0000  1.0000  -0.3778   0.0000   0.0000   0.0000   0.3172
   1.300   0.0423   0.02883   0.01357  -0.0025  1.0000  1.0000  -0.3850   0.0000   0.0000   0.0000   0.2992
   1.400   0.0490   0.02903   0.01373  -0.0022  1.0000  1.0000  -0.3932   0.0000   0.0000   0.0000   0.2864
   1.500   0.0556   0.02924   0.01390  -0.0019  1.0000  1.0000  -0.4013   0.0000   0.0000   0.0000   0.2768
   1.600   0.0622   0.02946   0.01408  -0.0017  1.0000  1.0000  -0.4094   0.0000   0.0000   0.0000   0.2694
   1.700   0.0687   0.02969   0.01427  -0.0014  1.0000  1.0000  -0.4175   0.0000   0.0000   0.0000   0.2636
   1.800   0.0753   0.02992   0.01448  -0.0012  1.0000  1.0000  -0.4255   0.0000   0.0000   0.0000   0.2589
   1.900   0.0817   0.03016   0.01470  -0.0010  1.0000  1.0000  -0.4340   0.0000   0.0000   0.0000   0.2551
   2.000   0.0882   0.03042   0.01493  -0.0008  1.0000  1.0000  -0.4431   0.0000   0.0000   0.0000   0.2520
   2.100   0.0946   0.03068   0.01517  -0.0006  1.0000  1.0000  -0.4522   0.0000   0.0000   0.0000   0.2494
   2.200   0.1010   0.03095   0.01540  -0.0004  1.0000  1.0000  -0.4611   0.0000   0.0000   0.0000   0.2472
   2.300   0.1073   0.03124   0.01566  -0.0003  1.0000  1.0000  -0.4700   0.0000   0.0000   0.0000   0.2454
   2.400   0.1135   0.03153   0.01594  -0.0001  1.0000  1.0000  -0.4789   0.0000   0.0000   0.0000   0.2439
   2.500   0.1198   0.03183   0.01624   0.0001  1.0000  1.0000  -0.4876   0.0000   0.0000   0.0000   0.2426
   2.600   0.1259   0.03215   0.01654   0.0002  1.0000  1.0000  -0.4977   0.0000   0.0000   0.0000   0.2416
   2.700   0.1320   0.03247   0.01686   0.0003  1.0000  1.0000  -0.5078   0.0000   0.0000   0.0000   0.2407
   2.800   0.1380   0.03281   0.01719   0.0004  1.0000  1.0000  -0.5178   0.0000   0.0000   0.0000   0.2400
   2.900   0.1440   0.03316   0.01754   0.0005  1.0000  1.0000  -0.5276   0.0000   0.0000   0.0000   0.2394
   3.000   0.1499   0.03352   0.01791   0.0006  1.0000  1.0000  -0.5374   0.0000   0.0000   0.0000   0.2389
   3.100   0.1557   0.03390   0.01828   0.0007  1.0000  1.0000  -0.5470   0.0000   0.0000   0.0000   0.2386
   3.200   0.1614   0.03429   0.01868   0.0008  1.0000  1.0000  -0.5565   0.0000   0.0000   0.0000   0.2384
   3.300   0.1671   0.03469   0.01909   0.0008  1.0000  1.0000  -0.5658   0.0000   0.0000   0.0000   0.2382
   3.400   0.1727   0.03510   0.01952   0.0008  1.0000  1.0000  -0.5750   0.0000   0.0000   0.0000   0.2382
   3.500   0.1782   0.03553   0.01996   0.0008  1.0000  1.0000  -0.5840   0.0000   0.0000   0.0000   0.2382
   3.600   0.1836   0.03598   0.02042   0.0008  1.0000  1.0000  -0.5929   0.0000   0.0000   0.0000   0.2383
   3.700   0.1889   0.03644   0.02090   0.0008  1.0000  1.0000  -0.6033   0.0000   0.0000   0.0000   0.2385
   3.800   0.1941   0.03692   0.02139   0.0008  1.0000  1.0000  -0.6137   0.0000   0.0000   0.0000   0.2387
   3.900   0.1993   0.03741   0.02190   0.0007  1.0000  1.0000  -0.6239   0.0000   0.0000   0.0000   0.2390
   4.000   0.2043   0.03792   0.02244   0.0007  1.0000  1.0000  -0.6339   0.0000   0.0000   0.0000   0.2394
   4.100   0.2093   0.03844   0.02299   0.0006  1.0000  1.0000  -0.6436   0.0000   0.0000   0.0000   0.2398
   4.200   0.2141   0.03899   0.02359   0.0005  1.0000  1.0000  -0.6531   0.0000   0.0000   0.0000   0.2403
   4.300   0.2189   0.03955   0.02417   0.0004  1.0000  1.0000  -0.6623   0.0000   0.0000   0.0000   0.2408
   4.400   0.2236   0.04013   0.02478   0.0002  1.0000  1.0000  -0.6713   0.0000   0.0000   0.0000   0.2415
   4.500   0.2281   0.04073   0.02541   0.0001  1.0000  1.0000  -0.6801   0.0000   0.0000   0.0000   0.2421
   4.600   0.2326   0.04135   0.02606  -0.0001  1.0000  1.0000  -0.6907   0.0000   0.0000   0.0000   0.2429
   4.700   0.2370   0.04199   0.02673  -0.0003  1.0000  1.0000  -0.7011   0.0000   0.0000   0.0000   0.2436
   4.800   0.2412   0.04265   0.02742  -0.0005  1.0000  1.0000  -0.7112   0.0000   0.0000   0.0000   0.2445
   4.900   0.2454   0.04333   0.02814  -0.0008  1.0000  1.0000  -0.7209   0.0000   0.0000   0.0000   0.2454
   5.000   0.2495   0.04403   0.02887  -0.0011  1.0000  1.0000  -0.7303   0.0000   0.0000   0.0000   0.2463
   5.100   0.2535   0.04475   0.02963  -0.0014  1.0000  1.0000  -0.7394   0.0000   0.0000   0.0000   0.2473
   5.200   0.2574   0.04550   0.03041  -0.0017  1.0000  1.0000  -0.7481   0.0000   0.0000   0.0000   0.2484
   5.300   0.3063   0.04874   0.03386  -0.0110  0.9688  1.0000  -0.8067   0.0000   0.0000   0.0000   0.2785
   5.400   0.3388   0.05066   0.03594  -0.0166  0.9405  1.0000  -0.8478   0.0000   0.0000   0.0000   0.2917
   5.500   0.3672   0.05232   0.03775  -0.0210  0.9155  1.0000  -0.8850   0.0000   0.0000   0.0000   0.3001
   5.600   0.3935   0.05378   0.03935  -0.0246  0.8912  1.0000  -0.9231   0.0000   0.0000   0.0000   0.3057
   5.700   0.4191   0.05508   0.04086  -0.0279  0.8663  1.0000  -0.9652   0.0000   0.0000   0.0000   0.3097
   5.800   0.4423   0.05626   0.04218  -0.0305  0.8437  1.0000  -1.0042   0.0000   0.0000   0.0000   0.3123
   5.900   0.4653   0.05732   0.04338  -0.0328  0.8208  1.0000  -1.0436   0.0000   0.0000   0.0000   0.3140
   6.000   0.4882   0.05825   0.04444  -0.0349  0.7973  1.0000  -1.0833   0.0000   0.0000   0.0000   0.3149
   6.100   0.5104   0.05911   0.04544  -0.0367  0.7754  1.0000  -1.1222   0.0000   0.0000   0.0000   0.3153
   6.200   0.5326   0.05981   0.04629  -0.0381  0.7528  1.0000  -1.1616   0.0000   0.0000   0.0000   0.3151
   6.300   0.5550   0.06038   0.04701  -0.0393  0.7299  1.0000  -1.2020   0.0000   0.0000   0.0000   0.3144
   6.400   0.5787   0.06088   0.04767  -0.0404  0.7077  1.0000  -1.2447   0.0000   0.0000   0.0000   0.3134
   6.500   0.6025   0.06117   0.04813  -0.0411  0.6846  1.0000  -1.2939   0.0000   0.0000   0.0000   0.3119
   6.600   0.6261   0.06126   0.04850  -0.0414  0.6612  1.0000  -1.3477   0.0000   0.0000   0.0000   0.3098
   6.700   0.6175   0.06246   0.04967  -0.0402  0.6513  1.0000  -1.3350   0.0000   0.0000   0.0000   0.3087
   6.800   0.6379   0.06285   0.05022  -0.0405  0.6322  1.0000  -1.3808   0.0000   0.0000   0.0000   0.3070
   6.900   0.6623   0.06282   0.05037  -0.0404  0.6103  1.0000  -1.4426   0.0000   0.0000   0.0000   0.3047
   7.000   0.6874   0.06241   0.05014  -0.0399  0.5866  1.0000  -1.5134   0.0000   0.0000   0.0000   0.3016
   7.100   0.7164   0.06176   0.04970  -0.0392  0.5641  1.0000  -1.5938   0.0000   0.0000   0.0000   0.2984
   7.200   0.7017   0.06397   0.05184  -0.0386  0.5595  1.0000  -1.5612   0.0000   0.0000   0.0000   0.2985
   7.400   0.8113   0.05859   0.04712  -0.0362  0.4929  1.0000  -1.8743   0.0000   0.0000   0.0000   0.2882
   7.500   0.7934   0.06115   0.04962  -0.0355  0.4909  1.0000  -1.8288   0.0000   0.0000   0.0000   0.2881
   7.600   0.7767   0.06356   0.05197  -0.0347  0.4888  1.0000  -1.7870   0.0000   0.0000   0.0000   0.2880
   7.700   0.7629   0.06592   0.05427  -0.0343  0.4858  1.0000  -1.7524   0.0000   0.0000   0.0000   0.2882
   7.800   0.7995   0.06522   0.05388  -0.0338  0.4675  1.0000  -1.8645   0.0000   0.0000   0.0000   0.2854
   7.900   0.7839   0.06776   0.05626  -0.0334  0.4665  1.0000  -1.8237   0.0000   0.0000   0.0000   0.2857
   8.000   0.7696   0.07039   0.05882  -0.0334  0.4653  1.0000  -1.7844   0.0000   0.0000   0.0000   0.2864
   8.100   0.7571   0.07303   0.06141  -0.0338  0.4640  1.0000  -1.7487   0.0000   0.0000   0.0000   0.2875
   8.200   0.7466   0.07551   0.06384  -0.0341  0.4624  1.0000  -1.7185   0.0000   0.0000   0.0000   0.2884
   8.300   0.7388   0.07775   0.06605  -0.0344  0.4602  1.0000  -1.6964   0.0000   0.0000   0.0000   0.2892
   8.400   0.7666   0.07720   0.06577  -0.0327  0.4425  1.0000  -1.7892   0.0000   0.0000   0.0000   0.2853
   8.500   0.7554   0.07974   0.06816  -0.0332  0.4414  1.0000  -1.7561   0.0000   0.0000   0.0000   0.2865
   8.600   0.7458   0.08209   0.07047  -0.0336  0.4398  1.0000  -1.7280   0.0000   0.0000   0.0000   0.2875
   8.700   0.7384   0.08421   0.07255  -0.0339  0.4372  1.0000  -1.7071   0.0000   0.0000   0.0000   0.2883
   8.800   0.7628   0.08364   0.07223  -0.0319  0.4178  1.0000  -1.7938   0.0000   0.0000   0.0000   0.2841
   8.900   0.7540   0.08604   0.07460  -0.0325  0.4168  1.0000  -1.7662   0.0000   0.0000   0.0000   0.2853
   9.000   0.7467   0.08834   0.07686  -0.0330  0.4158  1.0000  -1.7428   0.0000   0.0000   0.0000   0.2863
   9.100   0.7410   0.09060   0.07910  -0.0336  0.4154  1.0000  -1.7230   0.0000   0.0000   0.0000   0.2874
   9.200   0.7360   0.09285   0.08133  -0.0343  0.4154  1.0000  -1.7048   0.0000   0.0000   0.0000   0.2885
   9.300   0.7318   0.09507   0.08354  -0.0349  0.4157  1.0000  -1.6885   0.0000   0.0000   0.0000   0.2895
   9.400   0.7285   0.09727   0.08573  -0.0356  0.4163  1.0000  -1.6742   0.0000   0.0000   0.0000   0.2906
   9.500   0.7260   0.09946   0.08791  -0.0362  0.4172  1.0000  -1.6621   0.0000   0.0000   0.0000   0.2916
   9.600   0.7247   0.10165   0.09011  -0.0369  0.4182  1.0000  -1.6526   0.0000   0.0000   0.0000   0.2925
   9.700   0.7249   0.10386   0.09234  -0.0376  0.4196  1.0000  -1.6467   0.0000   0.0000   0.0000   0.2934
   9.800   0.7274   0.10613   0.09464  -0.0384  0.4210  1.0000  -1.6462   0.0000   0.0000   0.0000   0.2942
   9.900   0.7333   0.10853   0.09708  -0.0391  0.4225  1.0000  -1.6538   0.0000   0.0000   0.0000   0.2947
  10.100   0.6816   0.11377   0.10199  -0.0432  0.4592  1.0000  -1.4866   0.0000   0.0000   0.0000   0.3045
  10.200   0.6905   0.11693   0.10520  -0.0448  0.4686  1.0000  -1.4955   0.0000   0.0000   0.0000   0.3059
  10.700   0.3097   0.07034   0.06094  -0.0259  0.6373  1.0000  -0.5249   0.0000   0.0000   0.0000   0.3319
  10.800   0.3091   0.07050   0.06110  -0.0259  0.6315  1.0000  -0.5248   0.0000   0.0000   0.0000   0.3318
  10.900   0.3139   0.07154   0.06215  -0.0263  0.6237  1.0000  -0.5323   0.0000   0.0000   0.0000   0.3318
  11.000   0.3229   0.07343   0.06410  -0.0271  0.6176  1.0000  -0.5448   0.0000   0.0000   0.0000   0.3319
  11.100   0.3294   0.07535   0.06604  -0.0278  0.6142  1.0000  -0.5524   0.0000   0.0000   0.0000   0.3323
  11.200   0.3283   0.07552   0.06620  -0.0279  0.6114  1.0000  -0.5503   0.0000   0.0000   0.0000   0.3327
  11.300   0.3297   0.07609   0.06677  -0.0281  0.6059  1.0000  -0.5515   0.0000   0.0000   0.0000   0.3329
  11.400   0.3344   0.07724   0.06803  -0.0286  0.5997  1.0000  -0.5574   0.0000   0.0000   0.0000   0.3329
  11.500   0.3430   0.07917   0.07001  -0.0293  0.5938  1.0000  -0.5692   0.0000   0.0000   0.0000   0.3328
  11.600   0.3506   0.08142   0.07230  -0.0301  0.5904  1.0000  -0.5820   0.0000   0.0000   0.0000   0.3332
  11.700   0.3492   0.08153   0.07239  -0.0302  0.5879  1.0000  -0.5802   0.0000   0.0000   0.0000   0.3337
  11.800   0.3500   0.08201   0.07287  -0.0304  0.5829  1.0000  -0.5822   0.0000   0.0000   0.0000   0.3340
  11.900   0.3545   0.08314   0.07402  -0.0308  0.5759  1.0000  -0.5908   0.0000   0.0000   0.0000   0.3339
  12.000   0.3699   0.08685   0.07782  -0.0319  0.5669  1.0000  -0.6173   0.0000   0.0000   0.0000   0.3332
  12.100   0.3670   0.08659   0.07753  -0.0320  0.5644  1.0000  -0.6124   0.0000   0.0000   0.0000   0.3338
  12.200   0.3671   0.08685   0.07778  -0.0321  0.5573  1.0000  -0.6129   0.0000   0.0000   0.0000   0.3341
  12.300   0.3769   0.08889   0.07988  -0.0326  0.5462  1.0000  -0.6309   0.0000   0.0000   0.0000   0.3331
  12.400   0.3831   0.09094   0.08194  -0.0332  0.5415  1.0000  -0.6403   0.0000   0.0000   0.0000   0.3332
  12.500   0.3816   0.09098   0.08197  -0.0334  0.5371  1.0000  -0.6368   0.0000   0.0000   0.0000   0.3338
  12.600   0.3843   0.09186   0.08286  -0.0338  0.5310  1.0000  -0.6403   0.0000   0.0000   0.0000   0.3340
  12.700   0.3903   0.09341   0.08444  -0.0343  0.5251  1.0000  -0.6494   0.0000   0.0000   0.0000   0.3338
  12.800   0.4012   0.09639   0.08750  -0.0350  0.5198  1.0000  -0.6657   0.0000   0.0000   0.0000   0.3332
  12.900   0.4033   0.09759   0.08869  -0.0355  0.5177  1.0000  -0.6664   0.0000   0.0000   0.0000   0.3338
  13.000   0.4018   0.09764   0.08872  -0.0357  0.5146  1.0000  -0.6614   0.0000   0.0000   0.0000   0.3347
  13.100   0.4032   0.09831   0.08940  -0.0361  0.5092  1.0000  -0.6613   0.0000   0.0000   0.0000   0.3351
  13.200   0.4077   0.09963   0.09075  -0.0365  0.5035  1.0000  -0.6664   0.0000   0.0000   0.0000   0.3351
  13.300   0.4157   0.10179   0.09296  -0.0371  0.4982  1.0000  -0.6768   0.0000   0.0000   0.0000   0.3347
  13.400   0.4254   0.10512   0.09632  -0.0378  0.4945  1.0000  -0.6895   0.0000   0.0000   0.0000   0.3343
  13.500   0.4232   0.10497   0.09615  -0.0381  0.4926  1.0000  -0.6838   0.0000   0.0000   0.0000   0.3353
  13.600   0.4227   0.10521   0.09639  -0.0385  0.4885  1.0000  -0.6816   0.0000   0.0000   0.0000   0.3362
  13.700   0.4255   0.10619   0.09739  -0.0389  0.4824  1.0000  -0.6865   0.0000   0.0000   0.0000   0.3364
  13.800   0.4333   0.10828   0.09953  -0.0393  0.4750  1.0000  -0.7022   0.0000   0.0000   0.0000   0.3357
  13.900   0.4422   0.11140   0.10275  -0.0399  0.4698  1.0000  -0.7182   0.0000   0.0000   0.0000   0.3351
  14.000   0.4395   0.11106   0.10238  -0.0403  0.4663  1.0000  -0.7108   0.0000   0.0000   0.0000   0.3363
  14.100   0.4412   0.11171   0.10304  -0.0406  0.4588  1.0000  -0.7128   0.0000   0.0000   0.0000   0.3366
  14.200   0.4511   0.11433   0.10572  -0.0410  0.4497  1.0000  -0.7324   0.0000   0.0000   0.0000   0.3353
  14.300   0.4586   0.11730   0.10871  -0.0415  0.4459  1.0000  -0.7441   0.0000   0.0000   0.0000   0.3349
  14.400   0.4565   0.11716   0.10855  -0.0420  0.4437  1.0000  -0.7365   0.0000   0.0000   0.0000   0.3362
  14.500   0.4566   0.11758   0.10897  -0.0425  0.4393  1.0000  -0.7333   0.0000   0.0000   0.0000   0.3371
  14.600   0.4597   0.11873   0.11014  -0.0429  0.4339  1.0000  -0.7363   0.0000   0.0000   0.0000   0.3373
  14.700   0.4654   0.12055   0.11200  -0.0434  0.4286  1.0000  -0.7449   0.0000   0.0000   0.0000   0.3370
  14.800   0.4759   0.12403   0.11554  -0.0438  0.4239  1.0000  -0.7620   0.0000   0.0000   0.0000   0.3359
  14.900   0.4797   0.12603   0.11754  -0.0444  0.4219  1.0000  -0.7642   0.0000   0.0000   0.0000   0.3362
  15.000   0.4776   0.12585   0.11735  -0.0449  0.4198  1.0000  -0.7555   0.0000   0.0000   0.0000   0.3376


