xflr5 v6.61

 Calculated polar for: SG6041

 1 1 Reynolds number fixed          Mach number fixed         

 xtrf =   1.000 (top)        1.000 (bottom)
 Mach =   0.000     Re =     0.475 e 6     Ncrit =   9.000

  alpha     CL        CD       CDp       Cm    Top Xtr Bot Xtr   Cpmin    Chinge    XCp    
 ------- -------- --------- --------- -------- ------- ------- -------- --------- ---------
 -10.000  -0.4338   0.09628   0.09387  -0.0365  1.0000  0.0182  -2.3768   0.0000   0.0000   0.0000   0.1574
  -9.900  -0.4328   0.09527   0.09287  -0.0365  1.0000  0.0183  -2.3444   0.0000   0.0000   0.0000   0.1574
  -9.800  -0.4320   0.09425   0.09186  -0.0365  1.0000  0.0185  -2.3146   0.0000   0.0000   0.0000   0.1573
  -9.700  -0.4315   0.09320   0.09082  -0.0366  1.0000  0.0187  -2.2888   0.0000   0.0000   0.0000   0.1572
  -9.600  -0.4311   0.09213   0.08976  -0.0366  1.0000  0.0189  -2.2660   0.0000   0.0000   0.0000   0.1571
  -9.500  -0.4311   0.09101   0.08864  -0.0368  1.0000  0.0191  -2.2490   0.0000   0.0000   0.0000   0.1569
  -9.400  -0.4314   0.08983   0.08748  -0.0369  1.0000  0.0193  -2.2376   0.0000   0.0000   0.0000   0.1568
  -9.300  -0.4321   0.08861   0.08627  -0.0371  1.0000  0.0195  -2.2313   0.0000   0.0000   0.0000   0.1566
  -9.200  -0.4332   0.08735   0.08503  -0.0373  1.0000  0.0197  -2.2296   0.0000   0.0000   0.0000   0.1565
  -9.100  -0.4347   0.08607   0.08375  -0.0375  1.0000  0.0199  -2.2322   0.0000   0.0000   0.0000   0.1565
  -9.000  -0.4366   0.08475   0.08246  -0.0377  1.0000  0.0201  -2.2388   0.0000   0.0000   0.0000   0.1566
  -8.900  -0.4391   0.08342   0.08114  -0.0379  1.0000  0.0203  -2.2492   0.0000   0.0000   0.0000   0.1568
  -8.800  -0.4420   0.08208   0.07981  -0.0381  1.0000  0.0204  -2.2632   0.0000   0.0000   0.0000   0.1571
  -8.700  -0.4457   0.08073   0.07848  -0.0382  1.0000  0.0205  -2.2811   0.0000   0.0000   0.0000   0.1577
  -8.600  -0.4502   0.07939   0.07717  -0.0382  1.0000  0.0206  -2.3031   0.0000   0.0000   0.0000   0.1586
  -8.500  -0.4558   0.07808   0.07588  -0.0382  1.0000  0.0207  -2.3295   0.0000   0.0000   0.0000   0.1600
  -8.400  -0.4628   0.07682   0.07464  -0.0380  1.0000  0.0207  -2.3615   0.0000   0.0000   0.0000   0.1619
  -8.300  -0.4718   0.07562   0.07347  -0.0375  1.0000  0.0206  -2.4012   0.0000   0.0000   0.0000   0.1645
  -8.200  -0.4836   0.07450   0.07238  -0.0369  1.0000  0.0204  -2.4537   0.0000   0.0000   0.0000   0.1679
  -8.100  -0.5008   0.07340   0.07131  -0.0362  1.0000  0.0201  -2.5349   0.0000   0.0000   0.0000   0.1724
  -8.000  -0.5097   0.07128   0.06918  -0.0382  0.9989  0.0199  -2.6084   0.0000   0.0000   0.0000   0.1699
  -7.900  -0.5047   0.06845   0.06631  -0.0420  0.9968  0.0202  -2.6271   0.0000   0.0000   0.0000   0.1616
  -7.800  -0.4986   0.06565   0.06347  -0.0456  0.9947  0.0205  -2.6405   0.0000   0.0000   0.0000   0.1534
  -7.700  -0.4926   0.06301   0.06077  -0.0488  0.9929  0.0209  -2.6539   0.0000   0.0000   0.0000   0.1458
  -7.600  -0.4863   0.06046   0.05816  -0.0517  0.9915  0.0213  -2.6674   0.0000   0.0000   0.0000   0.1386
  -7.500  -0.4806   0.05806   0.05570  -0.0540  0.9900  0.0218  -2.6821   0.0000   0.0000   0.0000   0.1326
  -7.400  -0.4773   0.05601   0.05358  -0.0551  0.9876  0.0222  -2.6990   0.0000   0.0000   0.0000   0.1295
  -7.300  -0.4722   0.05388   0.05137  -0.0564  0.9852  0.0228  -2.7180   0.0000   0.0000   0.0000   0.1255
  -7.200  -0.4648   0.05181   0.04919  -0.0577  0.9830  0.0235  -2.7408   0.0000   0.0000   0.0000   0.1208
  -7.100  -0.4514   0.05109   0.04837  -0.0584  0.9815  0.0246  -2.7070   0.0000   0.0000   0.0000   0.1154
  -7.000  -0.4402   0.05026   0.04743  -0.0593  0.9799  0.0250  -2.6722   0.0000   0.0000   0.0000   0.1101
  -6.900  -0.4318   0.04880   0.04586  -0.0603  0.9783  0.0251  -2.6539   0.0000   0.0000   0.0000   0.1051
  -6.800  -0.4234   0.04723   0.04417  -0.0612  0.9769  0.0252  -2.6355   0.0000   0.0000   0.0000   0.1000
  -6.700  -0.4148   0.04564   0.04246  -0.0622  0.9757  0.0252  -2.6143   0.0000   0.0000   0.0000   0.0946
  -6.600  -0.4058   0.04406   0.04076  -0.0631  0.9747  0.0252  -2.5989   0.0000   0.0000   0.0000   0.0890
  -6.500  -0.4130   0.03630   0.03261  -0.0651  0.9727  0.0264  -2.8725   0.0000   0.0000   0.0000   0.0868
  -6.400  -0.4040   0.03450   0.03073  -0.0661  0.9719  0.0270  -2.8405   0.0000   0.0000   0.0000   0.0809
  -6.300  -0.3982   0.03349   0.02966  -0.0657  0.9699  0.0273  -2.8017   0.0000   0.0000   0.0000   0.0794
  -6.200  -0.3944   0.03275   0.02889  -0.0648  0.9667  0.0276  -2.7613   0.0000   0.0000   0.0000   0.0803
  -6.100  -0.3867   0.03195   0.02805  -0.0646  0.9646  0.0279  -2.7087   0.0000   0.0000   0.0000   0.0775
  -5.600  -0.3420   0.02093   0.01579  -0.0626  0.9566  0.0155  -3.2875   0.0000   0.0000   0.0000   0.0607
  -5.500  -0.3309   0.01945   0.01412  -0.0627  0.9557  0.0148  -3.3214   0.0000   0.0000   0.0000   0.0542
  -5.400  -0.3190   0.01819   0.01268  -0.0629  0.9550  0.0143  -3.3453   0.0000   0.0000   0.0000   0.0466
  -5.300  -0.3065   0.01710   0.01144  -0.0631  0.9543  0.0138  -3.3579   0.0000   0.0000   0.0000   0.0378
  -5.200  -0.2937   0.01620   0.01040  -0.0633  0.9537  0.0135  -3.3542   0.0000   0.0000   0.0000   0.0279
  -5.100  -0.2806   0.01547   0.00955  -0.0637  0.9532  0.0133  -3.3285   0.0000   0.0000   0.0000   0.0165
  -5.000  -0.2673   0.01486   0.00887  -0.0641  0.9527  0.0132  -3.2874   0.0000   0.0000   0.0000   0.0033
  -4.900  -0.2537   0.01434   0.00828  -0.0646  0.9522  0.0132  -3.2366   0.0000   0.0000   0.0000  -0.0115
  -4.800  -0.2401   0.01388   0.00777  -0.0651  0.9516  0.0132  -3.1792   0.0000   0.0000   0.0000  -0.0282
  -4.700  -0.2266   0.01346   0.00731  -0.0656  0.9511  0.0133  -3.1173   0.0000   0.0000   0.0000  -0.0468
  -4.600  -0.2131   0.01309   0.00690  -0.0661  0.9504  0.0135  -3.0526   0.0000   0.0000   0.0000  -0.0677
  -4.500  -0.1997   0.01276   0.00653  -0.0666  0.9498  0.0138  -2.9867   0.0000   0.0000   0.0000  -0.0912
  -4.400  -0.1864   0.01245   0.00620  -0.0670  0.9491  0.0141  -2.9211   0.0000   0.0000   0.0000  -0.1177
  -4.300  -0.1824   0.01228   0.00600  -0.0655  0.9458  0.0144  -2.8816   0.0000   0.0000   0.0000  -0.1173
  -4.200  -0.1744   0.01206   0.00576  -0.0648  0.9432  0.0149  -2.8328   0.0000   0.0000   0.0000  -0.1298
  -4.100  -0.1643   0.01184   0.00550  -0.0645  0.9412  0.0156  -2.7807   0.0000   0.0000   0.0000  -0.1513
  -4.000  -0.1531   0.01164   0.00528  -0.0645  0.9395  0.0165  -2.7249   0.0000   0.0000   0.0000  -0.1801
  -3.900  -0.1428   0.01118   0.00478  -0.0643  0.9378  0.0201  -2.7316   0.0000   0.0000   0.0000  -0.2090
  -3.800  -0.1307   0.01098   0.00461  -0.0645  0.9364  0.0247  -2.6744   0.0000   0.0000   0.0000  -0.2527
  -3.700  -0.1188   0.01066   0.00435  -0.0646  0.9350  0.0356  -2.6235   0.0000   0.0000   0.0000  -0.3037
  -3.600  -0.1063   0.01045   0.00416  -0.0649  0.9338  0.0460  -2.5374   0.0000   0.0000   0.0000  -0.3714
  -3.500  -0.0933   0.01032   0.00405  -0.0653  0.9327  0.0531  -2.4317   0.0000   0.0000   0.0000  -0.4619
  -3.400  -0.0803   0.01018   0.00393  -0.0657  0.9316  0.0617  -2.3267   0.0000   0.0000   0.0000  -0.5808
  -3.300  -0.0675   0.01002   0.00383  -0.0661  0.9305  0.0721  -2.2191   0.0000   0.0000   0.0000  -0.7440
  -3.200  -0.0546   0.00989   0.00372  -0.0665  0.9293  0.0823  -2.1138   0.0000   0.0000   0.0000  -0.9854
  -3.100  -0.0421   0.00972   0.00361  -0.0668  0.9282  0.0957  -2.0116   0.0000   0.0000   0.0000  -1.3586
  -3.000  -0.0298   0.00954   0.00350  -0.0671  0.9269  0.1143  -1.9124   0.0000   0.0000   0.0000  -2.0278
  -2.900  -0.0179   0.00935   0.00341  -0.0673  0.9254  0.1407  -1.8153   0.0000   0.0000   0.0000  -3.5672
  -2.800  -0.0111   0.00916   0.00335  -0.0665  0.9227  0.1736  -1.7408   0.0000   0.0000   0.0000  -5.8047
  -2.700  -0.0037   0.00887   0.00326  -0.0659  0.9199  0.2281  -1.6642   0.0000   0.0000   0.0000  -17.9963
  -2.600   0.0041   0.00848   0.00317  -0.0654  0.9173  0.3067  -1.5870   0.0000   0.0000   0.0000  16.3008
  -2.500   0.0118   0.00802   0.00306  -0.0650  0.9147  0.4044  -1.5109   0.0000   0.0000   0.0000   5.8110
  -2.300   0.0279   0.00722   0.00294  -0.0639  0.9102  0.5951  -1.3558   0.0000   0.0000   0.0000   2.5634
  -2.200   0.0380   0.00705   0.00292  -0.0635  0.9083  0.6464  -1.2683   0.0000   0.0000   0.0000   1.9361
  -2.100   0.0492   0.00697   0.00290  -0.0634  0.9065  0.6771  -1.1812   0.0000   0.0000   0.0000   1.5495
  -2.000   0.0607   0.00690   0.00287  -0.0633  0.9047  0.6972  -1.0948   0.0000   0.0000   0.0000   1.3024
  -1.900   0.0727   0.00687   0.00285  -0.0634  0.9028  0.7115  -1.0077   0.0000   0.0000   0.0000   1.1283
  -1.800   0.0834   0.00685   0.00284  -0.0632  0.9006  0.7240  -0.9271   0.0000   0.0000   0.0000   1.0125
  -1.700   0.0927   0.00683   0.00283  -0.0627  0.8980  0.7335  -0.8534   0.0000   0.0000   0.0000   0.9308
  -1.600   0.1024   0.00680   0.00282  -0.0622  0.8952  0.7428  -0.7791   0.0000   0.0000   0.0000   0.8616
  -1.500   0.1129   0.00678   0.00278  -0.0620  0.8925  0.7514  -0.7036   0.0000   0.0000   0.0000   0.8021
  -1.400   0.1237   0.00675   0.00275  -0.0618  0.8898  0.7587  -0.6393   0.0000   0.0000   0.0000   0.7519
  -1.300   0.1347   0.00671   0.00273  -0.0616  0.8872  0.7670  -0.5813   0.0000   0.0000   0.0000   0.7094
  -1.200   0.1460   0.00668   0.00269  -0.0615  0.8848  0.7758  -0.5235   0.0000   0.0000   0.0000   0.6728
  -1.100   0.1572   0.00665   0.00265  -0.0613  0.8824  0.7833  -0.4700   0.0000   0.0000   0.0000   0.6415
  -1.000   0.1686   0.00662   0.00263  -0.0612  0.8800  0.7912  -0.4292   0.0000   0.0000   0.0000   0.6140
  -0.900   0.1804   0.00663   0.00261  -0.0612  0.8775  0.7993  -0.3988   0.0000   0.0000   0.0000   0.5900
  -0.800   0.1897   0.00661   0.00261  -0.0607  0.8745  0.8056  -0.4067   0.0000   0.0000   0.0000   0.5705
  -0.700   0.1993   0.00658   0.00260  -0.0603  0.8713  0.8115  -0.4155   0.0000   0.0000   0.0000   0.5526
  -0.600   0.2093   0.00657   0.00259  -0.0599  0.8680  0.8186  -0.4245   0.0000   0.0000   0.0000   0.5361
  -0.500   0.2197   0.00656   0.00257  -0.0596  0.8647  0.8268  -0.4351   0.0000   0.0000   0.0000   0.5210
  -0.400   0.2296   0.00652   0.00257  -0.0590  0.8616  0.8355  -0.4460   0.0000   0.0000   0.0000   0.5069
  -0.300   0.2398   0.00650   0.00256  -0.0586  0.8586  0.8449  -0.4571   0.0000   0.0000   0.0000   0.4940
  -0.200   0.2508   0.00651   0.00253  -0.0584  0.8556  0.8528  -0.4686   0.0000   0.0000   0.0000   0.4823
  -0.100   0.2610   0.00649   0.00254  -0.0580  0.8525  0.8592  -0.4801   0.0000   0.0000   0.0000   0.4715
   0.000   0.2700   0.00647   0.00254  -0.0574  0.8489  0.8654  -0.4916   0.0000   0.0000   0.0000   0.4617
   0.100   0.2796   0.00646   0.00254  -0.0569  0.8450  0.8713  -0.5035   0.0000   0.0000   0.0000   0.4526
   0.300   0.2999   0.00641   0.00248  -0.0562  0.8375  0.8809  -0.5288   0.0000   0.0000   0.0000   0.4363
   0.400   0.3107   0.00639   0.00244  -0.0560  0.8338  0.8851  -0.5433   0.0000   0.0000   0.0000   0.4289
   0.500   0.3220   0.00638   0.00241  -0.0559  0.8300  0.8891  -0.5581   0.0000   0.0000   0.0000   0.4221
   0.600   0.3316   0.00637   0.00241  -0.0554  0.8257  0.8934  -0.5731   0.0000   0.0000   0.0000   0.4157
   0.700   0.3413   0.00635   0.00239  -0.0551  0.8208  0.8974  -0.5888   0.0000   0.0000   0.0000   0.4097
   0.800   0.3516   0.00633   0.00236  -0.0548  0.8160  0.9010  -0.6050   0.0000   0.0000   0.0000   0.4042
   0.900   0.3624   0.00630   0.00233  -0.0546  0.8116  0.9044  -0.6218   0.0000   0.0000   0.0000   0.3989
   1.000   0.3735   0.00629   0.00230  -0.0544  0.8074  0.9079  -0.6389   0.0000   0.0000   0.0000   0.3939
   1.100   0.3838   0.00629   0.00229  -0.0542  0.8029  0.9119  -0.6554   0.0000   0.0000   0.0000   0.3892
   1.200   0.3935   0.00627   0.00229  -0.0538  0.7975  0.9162  -0.6715   0.0000   0.0000   0.0000   0.3846
   1.300   0.4036   0.00626   0.00227  -0.0535  0.7918  0.9205  -0.6879   0.0000   0.0000   0.0000   0.3804
   1.400   0.4141   0.00626   0.00224  -0.0532  0.7862  0.9245  -0.7048   0.0000   0.0000   0.0000   0.3764
   1.500   0.4255   0.00625   0.00222  -0.0532  0.7808  0.9280  -0.7226   0.0000   0.0000   0.0000   0.3727
   1.600   0.4363   0.00624   0.00224  -0.0530  0.7743  0.9320  -0.7411   0.0000   0.0000   0.0000   0.3692
   1.700   0.4473   0.00624   0.00222  -0.0529  0.7668  0.9362  -0.7614   0.0000   0.0000   0.0000   0.3658
   1.800   0.4584   0.00626   0.00219  -0.0528  0.7592  0.9406  -0.7821   0.0000   0.0000   0.0000   0.3626
   1.900   0.4687   0.00626   0.00219  -0.0525  0.7512  0.9456  -0.8019   0.0000   0.0000   0.0000   0.3594
   2.000   0.4803   0.00628   0.00219  -0.0525  0.7422  0.9496  -0.8262   0.0000   0.0000   0.0000   0.3567
   2.100   0.4937   0.00631   0.00217  -0.0529  0.7334  0.9525  -0.8535   0.0000   0.0000   0.0000   0.3545
   2.200   0.5071   0.00634   0.00219  -0.0534  0.7239  0.9557  -0.8809   0.0000   0.0000   0.0000   0.3525
   2.300   0.5205   0.00638   0.00219  -0.0538  0.7145  0.9589  -0.9085   0.0000   0.0000   0.0000   0.3505
   2.400   0.5336   0.00642   0.00220  -0.0542  0.7054  0.9625  -0.9360   0.0000   0.0000   0.0000   0.3487
   2.500   0.5460   0.00647   0.00222  -0.0545  0.6947  0.9666  -0.9627   0.0000   0.0000   0.0000   0.3467
   2.700   0.5723   0.00659   0.00225  -0.0553  0.6705  0.9731  -1.0186   0.0000   0.0000   0.0000   0.3435
   2.800   0.5869   0.00667   0.00226  -0.0561  0.6556  0.9753  -1.0527   0.0000   0.0000   0.0000   0.3423
   2.900   0.6009   0.00677   0.00230  -0.0567  0.6385  0.9776  -1.0874   0.0000   0.0000   0.0000   0.3410
   3.000   0.6149   0.00687   0.00234  -0.0574  0.6204  0.9801  -1.1224   0.0000   0.0000   0.0000   0.3399
   3.100   0.6285   0.00698   0.00237  -0.0580  0.6023  0.9830  -1.1570   0.0000   0.0000   0.0000   0.3387
   3.200   0.6415   0.00711   0.00241  -0.0584  0.5831  0.9863  -1.1911   0.0000   0.0000   0.0000   0.3375
   3.300   0.6538   0.00726   0.00246  -0.0588  0.5621  0.9898  -1.2243   0.0000   0.0000   0.0000   0.3362
   3.400   0.6676   0.00742   0.00252  -0.0595  0.5389  0.9923  -1.2599   0.0000   0.0000   0.0000   0.3353
   3.500   0.6817   0.00758   0.00257  -0.0602  0.5159  0.9950  -1.2962   0.0000   0.0000   0.0000   0.3345
   3.600   0.6957   0.00774   0.00264  -0.0610  0.4943  0.9977  -1.3325   0.0000   0.0000   0.0000   0.3338
   3.700   0.7098   0.00792   0.00271  -0.0618  0.4717  1.0000  -1.3693   0.0000   0.0000   0.0000   0.3331
   3.800   0.7137   0.00802   0.00275  -0.0605  0.4556  1.0000  -1.3908   0.0000   0.0000   0.0000   0.3306
   3.900   0.7179   0.00815   0.00279  -0.0592  0.4392  1.0000  -1.4129   0.0000   0.0000   0.0000   0.3283
   4.000   0.7226   0.00830   0.00286  -0.0580  0.4216  1.0000  -1.4360   0.0000   0.0000   0.0000   0.3260
   4.100   0.7286   0.00845   0.00292  -0.0570  0.4035  1.0000  -1.4609   0.0000   0.0000   0.0000   0.3239
   4.200   0.7349   0.00860   0.00299  -0.0561  0.3862  1.0000  -1.4866   0.0000   0.0000   0.0000   0.3219
   4.300   0.7412   0.00876   0.00307  -0.0553  0.3695  1.0000  -1.5125   0.0000   0.0000   0.0000   0.3200
   4.400   0.7479   0.00893   0.00318  -0.0544  0.3529  1.0000  -1.5390   0.0000   0.0000   0.0000   0.3182
   4.500   0.7554   0.00906   0.00326  -0.0538  0.3384  1.0000  -1.5668   0.0000   0.0000   0.0000   0.3164
   4.600   0.7625   0.00923   0.00335  -0.0530  0.3241  1.0000  -1.5942   0.0000   0.0000   0.0000   0.3147
   4.700   0.7703   0.00937   0.00343  -0.0524  0.3097  1.0000  -1.6259   0.0000   0.0000   0.0000   0.3132
   4.800   0.7780   0.00953   0.00353  -0.0518  0.2966  1.0000  -1.6655   0.0000   0.0000   0.0000   0.3116
   4.900   0.7857   0.00969   0.00362  -0.0512  0.2828  1.0000  -1.7055   0.0000   0.0000   0.0000   0.3101
   5.000   0.7939   0.00983   0.00372  -0.0507  0.2707  1.0000  -1.7466   0.0000   0.0000   0.0000   0.3087
   5.100   0.8017   0.01000   0.00382  -0.0501  0.2578  1.0000  -1.7873   0.0000   0.0000   0.0000   0.3072
   5.200   0.8101   0.01014   0.00392  -0.0496  0.2469  1.0000  -1.8296   0.0000   0.0000   0.0000   0.3059
   5.300   0.8181   0.01031   0.00402  -0.0491  0.2350  1.0000  -1.8712   0.0000   0.0000   0.0000   0.3045
   5.400   0.8266   0.01045   0.00413  -0.0486  0.2250  1.0000  -1.9143   0.0000   0.0000   0.0000   0.3033
   5.500   0.8349   0.01061   0.00424  -0.0482  0.2143  1.0000  -1.9625   0.0000   0.0000   0.0000   0.3020
   5.600   0.8433   0.01077   0.00435  -0.0477  0.2048  1.0000  -2.0125   0.0000   0.0000   0.0000   0.3008
   5.700   0.8520   0.01091   0.00446  -0.0473  0.1958  1.0000  -2.0638   0.0000   0.0000   0.0000   0.2996
   5.800   0.8599   0.01110   0.00461  -0.0467  0.1860  1.0000  -2.1135   0.0000   0.0000   0.0000   0.2984
   5.900   0.8689   0.01122   0.00472  -0.0464  0.1789  1.0000  -2.1663   0.0000   0.0000   0.0000   0.2973
   6.000   0.8774   0.01138   0.00484  -0.0459  0.1710  1.0000  -2.2182   0.0000   0.0000   0.0000   0.2962
   6.100   0.8853   0.01158   0.00498  -0.0454  0.1618  1.0000  -2.2685   0.0000   0.0000   0.0000   0.2950
   6.200   0.8945   0.01169   0.00509  -0.0451  0.1561  1.0000  -2.3231   0.0000   0.0000   0.0000   0.2940
   6.300   0.9030   0.01185   0.00522  -0.0446  0.1488  1.0000  -2.3763   0.0000   0.0000   0.0000   0.2930
   6.400   0.9108   0.01207   0.00537  -0.0441  0.1403  1.0000  -2.4274   0.0000   0.0000   0.0000   0.2918
   6.500   0.9199   0.01218   0.00549  -0.0438  0.1353  1.0000  -2.4828   0.0000   0.0000   0.0000   0.2909
   6.600   0.9286   0.01232   0.00562  -0.0434  0.1296  1.0000  -2.5379   0.0000   0.0000   0.0000   0.2899
   6.700   0.9368   0.01252   0.00576  -0.0429  0.1232  1.0000  -2.5912   0.0000   0.0000   0.0000   0.2889
   6.800   0.9446   0.01273   0.00594  -0.0423  0.1163  1.0000  -2.6432   0.0000   0.0000   0.0000   0.2878
   6.900   0.9539   0.01283   0.00606  -0.0421  0.1134  1.0000  -2.7010   0.0000   0.0000   0.0000   0.2869
   7.000   0.9627   0.01297   0.00619  -0.0417  0.1095  1.0000  -2.7574   0.0000   0.0000   0.0000   0.2860
   7.100   0.9710   0.01314   0.00634  -0.0412  0.1050  1.0000  -2.8127   0.0000   0.0000   0.0000   0.2851
   7.200   0.9787   0.01337   0.00652  -0.0407  0.0996  1.0000  -2.8657   0.0000   0.0000   0.0000   0.2841
   7.300   0.9862   0.01360   0.00674  -0.0401  0.0948  1.0000  -2.9174   0.0000   0.0000   0.0000   0.2830
   7.400   0.9956   0.01369   0.00688  -0.0398  0.0929  1.0000  -2.9860   0.0000   0.0000   0.0000   0.2823
   7.500   1.0046   0.01381   0.00702  -0.0394  0.0903  1.0000  -3.0540   0.0000   0.0000   0.0000   0.2814
   7.600   1.0131   0.01396   0.00716  -0.0390  0.0872  1.0000  -3.1209   0.0000   0.0000   0.0000   0.2806
   7.700   1.0213   0.01414   0.00732  -0.0386  0.0840  1.0000  -3.1865   0.0000   0.0000   0.0000   0.2797
   7.800   1.0289   0.01436   0.00752  -0.0380  0.0805  1.0000  -3.2499   0.0000   0.0000   0.0000   0.2788
   7.900   1.0353   0.01467   0.00781  -0.0372  0.0762  1.0000  -3.3067   0.0000   0.0000   0.0000   0.2777
   8.000   1.0431   0.01486   0.00803  -0.0367  0.0742  1.0000  -3.3709   0.0000   0.0000   0.0000   0.2767
   8.100   1.0522   0.01497   0.00816  -0.0363  0.0732  1.0000  -3.4418   0.0000   0.0000   0.0000   0.2760
   8.200   1.0609   0.01509   0.00831  -0.0360  0.0719  1.0000  -3.5119   0.0000   0.0000   0.0000   0.2752
   8.300   1.0694   0.01523   0.00847  -0.0356  0.0702  1.0000  -3.5815   0.0000   0.0000   0.0000   0.2745
   8.400   1.0777   0.01538   0.00864  -0.0351  0.0684  1.0000  -3.6505   0.0000   0.0000   0.0000   0.2737
   8.500   1.0857   0.01556   0.00882  -0.0346  0.0664  1.0000  -3.7187   0.0000   0.0000   0.0000   0.2728
   8.600   1.0932   0.01576   0.00901  -0.0341  0.0643  1.0000  -3.7856   0.0000   0.0000   0.0000   0.2720
   8.700   1.1002   0.01601   0.00925  -0.0334  0.0618  1.0000  -3.8515   0.0000   0.0000   0.0000   0.2711
   8.800   1.1058   0.01635   0.00959  -0.0325  0.0589  1.0000  -3.9157   0.0000   0.0000   0.0000   0.2700
   8.900   1.1095   0.01682   0.01010  -0.0313  0.0560  1.0000  -3.9685   0.0000   0.0000   0.0000   0.2687
   9.000   1.1185   0.01690   0.01020  -0.0310  0.0554  1.0000  -4.0541   0.0000   0.0000   0.0000   0.2680
   9.100   1.1271   0.01699   0.01034  -0.0306  0.0546  1.0000  -4.1384   0.0000   0.0000   0.0000   0.2673
   9.200   1.1352   0.01710   0.01048  -0.0301  0.0533  1.0000  -4.2207   0.0000   0.0000   0.0000   0.2666
   9.300   1.1429   0.01724   0.01064  -0.0296  0.0518  1.0000  -4.3013   0.0000   0.0000   0.0000   0.2658
   9.400   1.1503   0.01739   0.01081  -0.0290  0.0501  1.0000  -4.3809   0.0000   0.0000   0.0000   0.2650
   9.500   1.1571   0.01757   0.01099  -0.0283  0.0483  1.0000  -4.4581   0.0000   0.0000   0.0000   0.2641
   9.600   1.1631   0.01780   0.01121  -0.0275  0.0465  1.0000  -4.5320   0.0000   0.0000   0.0000   0.2632
   9.700   1.1680   0.01811   0.01151  -0.0265  0.0444  1.0000  -4.5978   0.0000   0.0000   0.0000   0.2621
   9.800   1.1701   0.01860   0.01201  -0.0251  0.0420  1.0000  -4.6448   0.0000   0.0000   0.0000   0.2607
   9.900   1.1692   0.01934   0.01281  -0.0231  0.0398  1.0000  -4.6697   0.0000   0.0000   0.0000   0.2589
  10.000   1.1768   0.01946   0.01296  -0.0226  0.0395  1.0000  -4.7531   0.0000   0.0000   0.0000   0.2582
  10.100   1.1842   0.01960   0.01313  -0.0221  0.0390  1.0000  -4.8737   0.0000   0.0000   0.0000   0.2575
  10.200   1.1912   0.01977   0.01333  -0.0215  0.0384  1.0000  -4.9970   0.0000   0.0000   0.0000   0.2567
  10.300   1.1978   0.01998   0.01357  -0.0208  0.0377  1.0000  -5.1176   0.0000   0.0000   0.0000   0.2559
  10.400   1.2039   0.02021   0.01383  -0.0200  0.0369  1.0000  -5.2361   0.0000   0.0000   0.0000   0.2551
  10.500   1.2098   0.02045   0.01411  -0.0193  0.0361  1.0000  -5.3535   0.0000   0.0000   0.0000   0.2542
  10.600   1.2157   0.02070   0.01438  -0.0185  0.0352  1.0000  -5.4715   0.0000   0.0000   0.0000   0.2534
  10.700   1.2215   0.02095   0.01466  -0.0178  0.0344  1.0000  -5.5909   0.0000   0.0000   0.0000   0.2525
  10.800   1.2273   0.02120   0.01493  -0.0171  0.0336  1.0000  -5.7120   0.0000   0.0000   0.0000   0.2517
  10.900   1.2329   0.02147   0.01521  -0.0163  0.0328  1.0000  -5.8325   0.0000   0.0000   0.0000   0.2509
  11.000   1.2379   0.02176   0.01551  -0.0155  0.0320  1.0000  -5.9497   0.0000   0.0000   0.0000   0.2501
  11.100   1.2423   0.02211   0.01587  -0.0146  0.0311  1.0000  -6.0609   0.0000   0.0000   0.0000   0.2492
  11.200   1.2455   0.02254   0.01632  -0.0136  0.0303  1.0000  -6.1617   0.0000   0.0000   0.0000   0.2482
  11.300   1.2475   0.02308   0.01690  -0.0124  0.0294  1.0000  -6.2488   0.0000   0.0000   0.0000   0.2470
  11.400   1.2479   0.02378   0.01764  -0.0110  0.0285  1.0000  -6.3201   0.0000   0.0000   0.0000   0.2458
  11.500   1.2469   0.02465   0.01863  -0.0095  0.0278  1.0000  -6.3768   0.0000   0.0000   0.0000   0.2445
  11.600   1.2463   0.02558   0.01964  -0.0082  0.0272  1.0000  -6.4339   0.0000   0.0000   0.0000   0.2432
  11.700   1.2517   0.02586   0.01996  -0.0075  0.0270  1.0000  -6.5584   0.0000   0.0000   0.0000   0.2425
  11.800   1.2569   0.02617   0.02031  -0.0068  0.0269  1.0000  -6.6814   0.0000   0.0000   0.0000   0.2418
  11.900   1.2618   0.02649   0.02067  -0.0062  0.0267  1.0000  -6.8019   0.0000   0.0000   0.0000   0.2411
  12.000   1.2664   0.02684   0.02107  -0.0054  0.0265  1.0000  -6.9204   0.0000   0.0000   0.0000   0.2403
  12.100   1.2708   0.02722   0.02148  -0.0047  0.0262  1.0000  -7.0373   0.0000   0.0000   0.0000   0.2396
  12.200   1.2751   0.02761   0.02192  -0.0040  0.0259  1.0000  -7.1532   0.0000   0.0000   0.0000   0.2389
  12.300   1.2792   0.02801   0.02237  -0.0033  0.0256  1.0000  -7.2691   0.0000   0.0000   0.0000   0.2381
  12.400   1.2831   0.02842   0.02282  -0.0026  0.0253  1.0000  -7.3841   0.0000   0.0000   0.0000   0.2374
  12.500   1.2869   0.02884   0.02328  -0.0019  0.0249  1.0000  -7.4993   0.0000   0.0000   0.0000   0.2367
  12.600   1.2906   0.02926   0.02374  -0.0012  0.0245  1.0000  -7.6151   0.0000   0.0000   0.0000   0.2360
  12.700   1.2944   0.02968   0.02420  -0.0005  0.0241  1.0000  -7.7319   0.0000   0.0000   0.0000   0.2353
  12.800   1.2979   0.03010   0.02466   0.0001  0.0237  1.0000  -7.8484   0.0000   0.0000   0.0000   0.2346
  12.900   1.3013   0.03052   0.02511   0.0008  0.0233  1.0000  -7.9661   0.0000   0.0000   0.0000   0.2340
  13.000   1.3049   0.03093   0.02555   0.0014  0.0228  1.0000  -8.0862   0.0000   0.0000   0.0000   0.2333
  13.100   1.3086   0.03133   0.02597   0.0019  0.0224  1.0000  -8.2102   0.0000   0.0000   0.0000   0.2327
  13.200   1.3122   0.03172   0.02638   0.0025  0.0220  1.0000  -8.3353   0.0000   0.0000   0.0000   0.2321
  13.300   1.3157   0.03213   0.02681   0.0030  0.0215  1.0000  -8.4605   0.0000   0.0000   0.0000   0.2315
  13.400   1.3187   0.03260   0.02729   0.0035  0.0211  1.0000  -8.5806   0.0000   0.0000   0.0000   0.2310
  13.500   1.3207   0.03316   0.02787   0.0041  0.0206  1.0000  -8.6901   0.0000   0.0000   0.0000   0.2303
  13.600   1.3212   0.03387   0.02859   0.0048  0.0202  1.0000  -8.7820   0.0000   0.0000   0.0000   0.2296
  13.700   1.3204   0.03474   0.02949   0.0055  0.0197  1.0000  -8.8559   0.0000   0.0000   0.0000   0.2289
  13.800   1.3180   0.03579   0.03060   0.0063  0.0192  1.0000  -8.9093   0.0000   0.0000   0.0000   0.2281
  13.900   1.3138   0.03705   0.03194   0.0072  0.0188  1.0000  -8.9397   0.0000   0.0000   0.0000   0.2273
  14.000   1.3081   0.03855   0.03353   0.0080  0.0184  1.0000  -8.9485   0.0000   0.0000   0.0000   0.2264
  14.100   1.3007   0.04027   0.03537   0.0088  0.0181  1.0000  -8.9354   0.0000   0.0000   0.0000   0.2256
  14.200   1.3031   0.04089   0.03602   0.0091  0.0179  1.0000  -9.0476   0.0000   0.0000   0.0000   0.2252
  14.300   1.3077   0.04127   0.03642   0.0093  0.0178  1.0000  -9.1894   0.0000   0.0000   0.0000   0.2249
  14.400   1.3112   0.04177   0.03695   0.0095  0.0176  1.0000  -9.3188   0.0000   0.0000   0.0000   0.2246
  14.500   1.3140   0.04237   0.03759   0.0097  0.0175  1.0000  -9.4382   0.0000   0.0000   0.0000   0.2242
  14.600   1.3160   0.04308   0.03834   0.0099  0.0173  1.0000  -9.5470   0.0000   0.0000   0.0000   0.2239
  14.700   1.3172   0.04388   0.03919   0.0101  0.0171  1.0000  -9.6468   0.0000   0.0000   0.0000   0.2235
  14.800   1.3181   0.04474   0.04011   0.0102  0.0170  1.0000  -9.7420   0.0000   0.0000   0.0000   0.2232
  14.900   1.3184   0.04570   0.04111   0.0104  0.0168  1.0000  -9.8289   0.0000   0.0000   0.0000   0.2229
  15.000   1.3182   0.04672   0.04219   0.0105  0.0166  1.0000  -9.9105   0.0000   0.0000   0.0000   0.2226


