xflr5 v6.61

 Calculated polar for: SG6041

 1 1 Reynolds number fixed          Mach number fixed         

 xtrf =   1.000 (top)        1.000 (bottom)
 Mach =   0.000     Re =     0.325 e 6     Ncrit =   9.000

  alpha     CL        CD       CDp       Cm    Top Xtr Bot Xtr   Cpmin    Chinge    XCp    
 ------- -------- --------- --------- -------- ------- ------- -------- --------- ---------
 -10.000  -0.4325   0.09815   0.09525  -0.0384  1.0000  0.0265  -2.2676   0.0000   0.0000   0.0000   0.1529
  -9.900  -0.4313   0.09708   0.09420  -0.0381  1.0000  0.0268  -2.2304   0.0000   0.0000   0.0000   0.1534
  -9.800  -0.4304   0.09599   0.09311  -0.0380  1.0000  0.0270  -2.2018   0.0000   0.0000   0.0000   0.1536
  -9.700  -0.4299   0.09485   0.09199  -0.0380  1.0000  0.0272  -2.1802   0.0000   0.0000   0.0000   0.1536
  -9.600  -0.4293   0.09373   0.09087  -0.0380  1.0000  0.0274  -2.1598   0.0000   0.0000   0.0000   0.1537
  -9.500  -0.4291   0.09257   0.08972  -0.0380  1.0000  0.0276  -2.1442   0.0000   0.0000   0.0000   0.1537
  -9.400  -0.4291   0.09139   0.08856  -0.0381  1.0000  0.0277  -2.1318   0.0000   0.0000   0.0000   0.1537
  -9.300  -0.4294   0.09019   0.08737  -0.0381  1.0000  0.0279  -2.1222   0.0000   0.0000   0.0000   0.1537
  -9.200  -0.4300   0.08897   0.08617  -0.0382  1.0000  0.0281  -2.1155   0.0000   0.0000   0.0000   0.1537
  -9.100  -0.4310   0.08774   0.08495  -0.0384  1.0000  0.0283  -2.1116   0.0000   0.0000   0.0000   0.1538
  -9.000  -0.4322   0.08649   0.08372  -0.0385  1.0000  0.0284  -2.1104   0.0000   0.0000   0.0000   0.1539
  -8.900  -0.4339   0.08524   0.08249  -0.0386  1.0000  0.0286  -2.1116   0.0000   0.0000   0.0000   0.1541
  -8.800  -0.4360   0.08398   0.08125  -0.0387  1.0000  0.0288  -2.1161   0.0000   0.0000   0.0000   0.1545
  -8.700  -0.4386   0.08271   0.07999  -0.0388  1.0000  0.0289  -2.1236   0.0000   0.0000   0.0000   0.1549
  -8.600  -0.4419   0.08143   0.07874  -0.0389  1.0000  0.0290  -2.1345   0.0000   0.0000   0.0000   0.1556
  -8.500  -0.4459   0.08016   0.07749  -0.0389  1.0000  0.0291  -2.1494   0.0000   0.0000   0.0000   0.1565
  -8.400  -0.4510   0.07890   0.07626  -0.0389  1.0000  0.0292  -2.1690   0.0000   0.0000   0.0000   0.1577
  -8.300  -0.4574   0.07766   0.07504  -0.0387  1.0000  0.0293  -2.1947   0.0000   0.0000   0.0000   0.1593
  -8.200  -0.4657   0.07645   0.07386  -0.0385  1.0000  0.0293  -2.2288   0.0000   0.0000   0.0000   0.1615
  -8.100  -0.4770   0.07528   0.07273  -0.0382  1.0000  0.0292  -2.2766   0.0000   0.0000   0.0000   0.1644
  -8.000  -0.4927   0.07423   0.07170  -0.0375  1.0000  0.0289  -2.3440   0.0000   0.0000   0.0000   0.1686
  -7.900  -0.5078   0.07343   0.07092  -0.0361  1.0000  0.0288  -2.4013   0.0000   0.0000   0.0000   0.1738
  -7.800  -0.5177   0.07242   0.06991  -0.0351  1.0000  0.0287  -2.4378   0.0000   0.0000   0.0000   0.1772
  -7.700  -0.5258   0.07130   0.06879  -0.0344  1.0000  0.0288  -2.4666   0.0000   0.0000   0.0000   0.1799
  -7.600  -0.5330   0.07017   0.06765  -0.0336  1.0000  0.0288  -2.4907   0.0000   0.0000   0.0000   0.1823
  -7.500  -0.5394   0.06902   0.06650  -0.0329  1.0000  0.0289  -2.5105   0.0000   0.0000   0.0000   0.1845
  -7.400  -0.5355   0.06701   0.06445  -0.0347  0.9988  0.0292  -2.5055   0.0000   0.0000   0.0000   0.1806
  -7.300  -0.5293   0.06486   0.06225  -0.0370  0.9971  0.0295  -2.4957   0.0000   0.0000   0.0000   0.1755
  -7.200  -0.5228   0.06274   0.06008  -0.0392  0.9952  0.0299  -2.4857   0.0000   0.0000   0.0000   0.1706
  -7.100  -0.5158   0.06065   0.05793  -0.0413  0.9935  0.0304  -2.4752   0.0000   0.0000   0.0000   0.1655
  -7.000  -0.5083   0.05857   0.05578  -0.0433  0.9920  0.0309  -2.4644   0.0000   0.0000   0.0000   0.1604
  -6.900  -0.5001   0.05651   0.05364  -0.0453  0.9907  0.0315  -2.4533   0.0000   0.0000   0.0000   0.1550
  -6.800  -0.4951   0.05475   0.05181  -0.0461  0.9888  0.0321  -2.4473   0.0000   0.0000   0.0000   0.1525
  -6.700  -0.4894   0.05300   0.04998  -0.0469  0.9865  0.0328  -2.4412   0.0000   0.0000   0.0000   0.1497
  -6.600  -0.4823   0.05126   0.04814  -0.0478  0.9844  0.0336  -2.4351   0.0000   0.0000   0.0000   0.1464
  -6.500  -0.4735   0.04963   0.04640  -0.0487  0.9823  0.0346  -2.4301   0.0000   0.0000   0.0000   0.1427
  -6.400  -0.4598   0.04915   0.04578  -0.0493  0.9807  0.0363  -2.3933   0.0000   0.0000   0.0000   0.1382
  -6.300  -0.4445   0.04966   0.04614  -0.0498  0.9791  0.0373  -2.3438   0.0000   0.0000   0.0000   0.1334
  -6.200  -0.4346   0.04854   0.04490  -0.0506  0.9776  0.0375  -2.3322   0.0000   0.0000   0.0000   0.1290
  -6.100  -0.4248   0.04721   0.04344  -0.0514  0.9762  0.0375  -2.3234   0.0000   0.0000   0.0000   0.1243
  -6.000  -0.4146   0.04579   0.04190  -0.0522  0.9750  0.0376  -2.3145   0.0000   0.0000   0.0000   0.1193
  -5.400  -0.3847   0.02781   0.02257  -0.0515  0.9632  0.0265  -2.8680   0.0000   0.0000   0.0000   0.1111
  -5.300  -0.3755   0.02600   0.02072  -0.0513  0.9617  0.0225  -2.9064   0.0000   0.0000   0.0000   0.1082
  -5.200  -0.3686   0.02224   0.01637  -0.0501  0.9602  0.0190  -3.2047   0.0000   0.0000   0.0000   0.1088
  -5.100  -0.3568   0.02093   0.01479  -0.0498  0.9590  0.0179  -3.2793   0.0000   0.0000   0.0000   0.1049
  -5.000  -0.3440   0.02036   0.01410  -0.0500  0.9579  0.0176  -3.2420   0.0000   0.0000   0.0000   0.0990
  -4.900  -0.3311   0.01983   0.01349  -0.0503  0.9568  0.0174  -3.1941   0.0000   0.0000   0.0000   0.0924
  -4.800  -0.3180   0.01928   0.01283  -0.0507  0.9558  0.0173  -3.1447   0.0000   0.0000   0.0000   0.0850
  -4.700  -0.3049   0.01868   0.01216  -0.0511  0.9550  0.0172  -3.1000   0.0000   0.0000   0.0000   0.0768
  -4.600  -0.2918   0.01804   0.01144  -0.0514  0.9541  0.0172  -3.0608   0.0000   0.0000   0.0000   0.0679
  -4.500  -0.2787   0.01735   0.01068  -0.0518  0.9534  0.0173  -3.0281   0.0000   0.0000   0.0000   0.0583
  -4.400  -0.2658   0.01664   0.00990  -0.0521  0.9526  0.0175  -3.0005   0.0000   0.0000   0.0000   0.0478
  -4.300  -0.2527   0.01595   0.00916  -0.0525  0.9519  0.0178  -2.9732   0.0000   0.0000   0.0000   0.0360
  -4.200  -0.2394   0.01537   0.00853  -0.0530  0.9512  0.0183  -2.9369   0.0000   0.0000   0.0000   0.0224
  -4.100  -0.2255   0.01494   0.00808  -0.0536  0.9506  0.0191  -2.8829   0.0000   0.0000   0.0000   0.0058
  -4.000  -0.2108   0.01463   0.00777  -0.0544  0.9499  0.0203  -2.8172   0.0000   0.0000   0.0000  -0.0145
  -3.900  -0.1958   0.01436   0.00749  -0.0551  0.9493  0.0219  -2.7564   0.0000   0.0000   0.0000  -0.0386
  -3.800  -0.1920   0.01420   0.00731  -0.0536  0.9460  0.0232  -2.7281   0.0000   0.0000   0.0000  -0.0362
  -3.700  -0.1850   0.01405   0.00714  -0.0527  0.9429  0.0248  -2.6914   0.0000   0.0000   0.0000  -0.0418
  -3.600  -0.1764   0.01351   0.00660  -0.0522  0.9406  0.0300  -2.6951   0.0000   0.0000   0.0000  -0.0527
  -3.500  -0.1645   0.01335   0.00645  -0.0523  0.9388  0.0359  -2.6322   0.0000   0.0000   0.0000  -0.0753
  -3.400  -0.1526   0.01301   0.00618  -0.0525  0.9371  0.0470  -2.5706   0.0000   0.0000   0.0000  -0.1014
  -3.300  -0.1387   0.01298   0.00614  -0.0531  0.9359  0.0552  -2.4666   0.0000   0.0000   0.0000  -0.1406
  -3.200  -0.1259   0.01267   0.00591  -0.0535  0.9346  0.0708  -2.3761   0.0000   0.0000   0.0000  -0.1835
  -3.100  -0.1118   0.01249   0.00573  -0.0542  0.9335  0.0815  -2.2741   0.0000   0.0000   0.0000  -0.2432
  -3.000  -0.0976   0.01226   0.00557  -0.0548  0.9325  0.0940  -2.1705   0.0000   0.0000   0.0000  -0.3216
  -2.900  -0.0831   0.01203   0.00539  -0.0556  0.9316  0.1102  -2.0665   0.0000   0.0000   0.0000  -0.4299
  -2.800  -0.0687   0.01175   0.00523  -0.0564  0.9308  0.1379  -1.9617   0.0000   0.0000   0.0000  -0.5834
  -2.700  -0.0550   0.01133   0.00508  -0.0572  0.9300  0.1999  -1.8605   0.0000   0.0000   0.0000  -0.8036
  -2.600  -0.0429   0.01068   0.00492  -0.0578  0.9292  0.3222  -1.7660   0.0000   0.0000   0.0000  -1.1163
  -2.500  -0.0326   0.00995   0.00478  -0.0581  0.9282  0.4749  -1.6788   0.0000   0.0000   0.0000  -1.5526
  -2.400  -0.0225   0.00946   0.00479  -0.0579  0.9272  0.6028  -1.5905   0.0000   0.0000   0.0000  -2.3608
  -2.300  -0.0097   0.00929   0.00482  -0.0580  0.9263  0.6674  -1.4923   0.0000   0.0000   0.0000  -5.8332
  -2.200   0.0030   0.00922   0.00482  -0.0582  0.9251  0.7013  -1.3963   0.0000   0.0000   0.0000  19.8970
  -2.100   0.0030   0.00923   0.00487  -0.0557  0.9199  0.7153  -1.3514   0.0000   0.0000   0.0000  18.9557
  -2.000   0.0126   0.00920   0.00483  -0.0553  0.9172  0.7325  -1.2666   0.0000   0.0000   0.0000   4.6707
  -1.900   0.0241   0.00914   0.00480  -0.0551  0.9150  0.7472  -1.1791   0.0000   0.0000   0.0000   2.5590
  -1.800   0.0367   0.00909   0.00476  -0.0552  0.9132  0.7593  -1.0891   0.0000   0.0000   0.0000   1.7699
  -1.700   0.0497   0.00903   0.00470  -0.0554  0.9116  0.7708  -0.9990   0.0000   0.0000   0.0000   1.3748
  -1.600   0.0632   0.00898   0.00464  -0.0557  0.9101  0.7807  -0.9091   0.0000   0.0000   0.0000   1.1389
  -1.500   0.0764   0.00891   0.00459  -0.0559  0.9087  0.7908  -0.8217   0.0000   0.0000   0.0000   0.9872
  -1.400   0.0902   0.00886   0.00452  -0.0563  0.9073  0.8018  -0.7343   0.0000   0.0000   0.0000   0.8778
  -1.300   0.1039   0.00879   0.00448  -0.0566  0.9061  0.8107  -0.6646   0.0000   0.0000   0.0000   0.7973
  -1.200   0.1178   0.00874   0.00442  -0.0569  0.9048  0.8196  -0.5984   0.0000   0.0000   0.0000   0.7352
  -1.100   0.1318   0.00870   0.00436  -0.0573  0.9035  0.8283  -0.5332   0.0000   0.0000   0.0000   0.6863
  -1.000   0.1454   0.00864   0.00432  -0.0575  0.9021  0.8354  -0.4703   0.0000   0.0000   0.0000   0.6468
  -0.800   0.1595   0.00865   0.00432  -0.0555  0.8946  0.8503  -0.4118   0.0000   0.0000   0.0000   0.5987
  -0.700   0.1688   0.00860   0.00430  -0.0548  0.8916  0.8584  -0.3981   0.0000   0.0000   0.0000   0.5751
  -0.600   0.1788   0.00856   0.00428  -0.0542  0.8889  0.8687  -0.4072   0.0000   0.0000   0.0000   0.5534
  -0.500   0.1893   0.00852   0.00424  -0.0537  0.8865  0.8793  -0.4166   0.0000   0.0000   0.0000   0.5337
  -0.400   0.2001   0.00847   0.00422  -0.0532  0.8843  0.8890  -0.4275   0.0000   0.0000   0.0000   0.5155
  -0.300   0.2115   0.00843   0.00417  -0.0529  0.8821  0.8976  -0.4393   0.0000   0.0000   0.0000   0.4997
  -0.200   0.2241   0.00838   0.00411  -0.0528  0.8801  0.9038  -0.4518   0.0000   0.0000   0.0000   0.4854
  -0.100   0.2371   0.00834   0.00406  -0.0529  0.8780  0.9089  -0.4646   0.0000   0.0000   0.0000   0.4725
   0.000   0.2449   0.00834   0.00407  -0.0520  0.8742  0.9147  -0.4745   0.0000   0.0000   0.0000   0.4617
   0.100   0.2531   0.00831   0.00404  -0.0513  0.8701  0.9205  -0.4854   0.0000   0.0000   0.0000   0.4516
   0.200   0.2634   0.00827   0.00399  -0.0509  0.8664  0.9251  -0.4978   0.0000   0.0000   0.0000   0.4423
   0.300   0.2769   0.00821   0.00392  -0.0512  0.8633  0.9282  -0.5124   0.0000   0.0000   0.0000   0.4339
   0.400   0.2909   0.00816   0.00385  -0.0516  0.8604  0.9310  -0.5283   0.0000   0.0000   0.0000   0.4262
   0.500   0.3049   0.00811   0.00378  -0.0520  0.8576  0.9339  -0.5451   0.0000   0.0000   0.0000   0.4193
   0.600   0.3192   0.00807   0.00372  -0.0525  0.8550  0.9366  -0.5621   0.0000   0.0000   0.0000   0.4131
   0.700   0.3312   0.00805   0.00369  -0.0526  0.8513  0.9402  -0.5795   0.0000   0.0000   0.0000   0.4073
   0.800   0.3408   0.00803   0.00367  -0.0522  0.8466  0.9447  -0.5951   0.0000   0.0000   0.0000   0.4015
   0.900   0.3519   0.00799   0.00363  -0.0521  0.8420  0.9485  -0.6121   0.0000   0.0000   0.0000   0.3963
   1.000   0.3673   0.00795   0.00356  -0.0529  0.8378  0.9504  -0.6327   0.0000   0.0000   0.0000   0.3921
   1.100   0.3831   0.00790   0.00350  -0.0537  0.8339  0.9521  -0.6538   0.0000   0.0000   0.0000   0.3883
   1.200   0.3992   0.00787   0.00343  -0.0546  0.8303  0.9538  -0.6753   0.0000   0.0000   0.0000   0.3848
   1.300   0.4131   0.00786   0.00342  -0.0551  0.8255  0.9562  -0.6948   0.0000   0.0000   0.0000   0.3814
   1.400   0.4269   0.00784   0.00341  -0.0557  0.8201  0.9589  -0.7145   0.0000   0.0000   0.0000   0.3782
   1.500   0.4412   0.00782   0.00339  -0.0563  0.8149  0.9615  -0.7351   0.0000   0.0000   0.0000   0.3753
   1.600   0.4559   0.00779   0.00334  -0.0569  0.8100  0.9639  -0.7590   0.0000   0.0000   0.0000   0.3725
   1.700   0.4707   0.00777   0.00328  -0.0575  0.8053  0.9663  -0.7831   0.0000   0.0000   0.0000   0.3699
   1.800   0.4816   0.00776   0.00329  -0.0575  0.7985  0.9703  -0.8035   0.0000   0.0000   0.0000   0.3669
   1.900   0.4966   0.00774   0.00326  -0.0583  0.7916  0.9721  -0.8315   0.0000   0.0000   0.0000   0.3648
   2.000   0.5130   0.00771   0.00320  -0.0593  0.7848  0.9732  -0.8622   0.0000   0.0000   0.0000   0.3630
   2.100   0.5289   0.00770   0.00317  -0.0603  0.7771  0.9747  -0.8926   0.0000   0.0000   0.0000   0.3613
   2.200   0.5445   0.00768   0.00315  -0.0612  0.7683  0.9766  -0.9228   0.0000   0.0000   0.0000   0.3596
   2.300   0.5601   0.00767   0.00309  -0.0621  0.7600  0.9784  -0.9534   0.0000   0.0000   0.0000   0.3580
   2.400   0.5751   0.00767   0.00308  -0.0629  0.7508  0.9808  -0.9833   0.0000   0.0000   0.0000   0.3564
   2.500   0.5897   0.00768   0.00306  -0.0636  0.7413  0.9833  -1.0130   0.0000   0.0000   0.0000   0.3548
   2.600   0.6041   0.00769   0.00304  -0.0642  0.7324  0.9858  -1.0434   0.0000   0.0000   0.0000   0.3533
   2.700   0.6177   0.00772   0.00307  -0.0648  0.7217  0.9886  -1.0774   0.0000   0.0000   0.0000   0.3517
   2.800   0.6315   0.00775   0.00304  -0.0653  0.7105  0.9909  -1.1120   0.0000   0.0000   0.0000   0.3502
   2.900   0.6469   0.00777   0.00304  -0.0663  0.6962  0.9930  -1.1490   0.0000   0.0000   0.0000   0.3491
   3.000   0.6618   0.00782   0.00301  -0.0671  0.6808  0.9954  -1.1857   0.0000   0.0000   0.0000   0.3480
   3.200   0.6908   0.00796   0.00301  -0.0686  0.6444  1.0000  -1.2588   0.0000   0.0000   0.0000   0.3457
   3.300   0.6949   0.00802   0.00300  -0.0673  0.6296  1.0000  -1.2803   0.0000   0.0000   0.0000   0.3431
   3.400   0.6986   0.00811   0.00300  -0.0658  0.6144  1.0000  -1.3012   0.0000   0.0000   0.0000   0.3405
   3.500   0.7027   0.00818   0.00302  -0.0645  0.5977  1.0000  -1.3227   0.0000   0.0000   0.0000   0.3379
   3.600   0.7067   0.00828   0.00304  -0.0631  0.5809  1.0000  -1.3444   0.0000   0.0000   0.0000   0.3354
   3.700   0.7109   0.00841   0.00307  -0.0618  0.5634  1.0000  -1.3663   0.0000   0.0000   0.0000   0.3329
   3.800   0.7155   0.00854   0.00311  -0.0605  0.5450  1.0000  -1.3890   0.0000   0.0000   0.0000   0.3305
   3.900   0.7208   0.00867   0.00316  -0.0594  0.5268  1.0000  -1.4129   0.0000   0.0000   0.0000   0.3282
   4.000   0.7264   0.00881   0.00322  -0.0583  0.5094  1.0000  -1.4373   0.0000   0.0000   0.0000   0.3260
   4.100   0.7321   0.00897   0.00328  -0.0572  0.4921  1.0000  -1.4619   0.0000   0.0000   0.0000   0.3238
   4.200   0.7380   0.00913   0.00336  -0.0562  0.4738  1.0000  -1.4870   0.0000   0.0000   0.0000   0.3218
   4.300   0.7442   0.00929   0.00347  -0.0553  0.4552  1.0000  -1.5126   0.0000   0.0000   0.0000   0.3198
   4.400   0.7504   0.00946   0.00355  -0.0543  0.4367  1.0000  -1.5382   0.0000   0.0000   0.0000   0.3178
   4.500   0.7565   0.00965   0.00365  -0.0534  0.4179  1.0000  -1.5639   0.0000   0.0000   0.0000   0.3159
   4.700   0.7695   0.01003   0.00384  -0.0517  0.3797  1.0000  -1.6209   0.0000   0.0000   0.0000   0.3123
   4.800   0.7764   0.01022   0.00395  -0.0509  0.3616  1.0000  -1.6582   0.0000   0.0000   0.0000   0.3106
   4.900   0.7833   0.01041   0.00406  -0.0502  0.3445  1.0000  -1.6962   0.0000   0.0000   0.0000   0.3090
   5.100   0.7980   0.01078   0.00428  -0.0489  0.3124  1.0000  -1.7750   0.0000   0.0000   0.0000   0.3059
   5.200   0.8054   0.01098   0.00440  -0.0482  0.2980  1.0000  -1.8147   0.0000   0.0000   0.0000   0.3045
   5.300   0.8130   0.01117   0.00452  -0.0476  0.2833  1.0000  -1.8551   0.0000   0.0000   0.0000   0.3031
   5.400   0.8209   0.01134   0.00465  -0.0470  0.2701  1.0000  -1.8965   0.0000   0.0000   0.0000   0.3017
   5.500   0.8282   0.01156   0.00478  -0.0464  0.2567  1.0000  -1.9369   0.0000   0.0000   0.0000   0.3004
   5.600   0.8365   0.01172   0.00490  -0.0459  0.2447  1.0000  -1.9862   0.0000   0.0000   0.0000   0.2991
   5.700   0.8439   0.01194   0.00505  -0.0453  0.2324  1.0000  -2.0334   0.0000   0.0000   0.0000   0.2978
   5.800   0.8524   0.01209   0.00518  -0.0449  0.2218  1.0000  -2.0840   0.0000   0.0000   0.0000   0.2967
   5.900   0.8599   0.01231   0.00535  -0.0443  0.2108  1.0000  -2.1323   0.0000   0.0000   0.0000   0.2954
   6.000   0.8683   0.01248   0.00550  -0.0438  0.2015  1.0000  -2.1833   0.0000   0.0000   0.0000   0.2943
   6.100   0.8762   0.01268   0.00564  -0.0433  0.1918  1.0000  -2.2333   0.0000   0.0000   0.0000   0.2931
   6.200   0.8839   0.01289   0.00581  -0.0427  0.1829  1.0000  -2.2828   0.0000   0.0000   0.0000   0.2919
   6.300   0.8925   0.01304   0.00595  -0.0423  0.1753  1.0000  -2.3353   0.0000   0.0000   0.0000   0.2909
   6.400   0.9001   0.01327   0.00612  -0.0417  0.1670  1.0000  -2.3853   0.0000   0.0000   0.0000   0.2898
   6.500   0.9080   0.01348   0.00630  -0.0412  0.1595  1.0000  -2.4360   0.0000   0.0000   0.0000   0.2887
   6.600   0.9167   0.01363   0.00645  -0.0408  0.1530  1.0000  -2.4897   0.0000   0.0000   0.0000   0.2877
   6.700   0.9244   0.01384   0.00662  -0.0403  0.1459  1.0000  -2.5410   0.0000   0.0000   0.0000   0.2866
   6.800   0.9314   0.01412   0.00684  -0.0396  0.1384  1.0000  -2.5896   0.0000   0.0000   0.0000   0.2855
   6.900   0.9406   0.01423   0.00698  -0.0393  0.1338  1.0000  -2.6459   0.0000   0.0000   0.0000   0.2846
   7.000   0.9488   0.01441   0.00715  -0.0388  0.1283  1.0000  -2.6997   0.0000   0.0000   0.0000   0.2837
   7.100   0.9562   0.01465   0.00733  -0.0382  0.1226  1.0000  -2.7513   0.0000   0.0000   0.0000   0.2826
   7.200   0.9626   0.01497   0.00761  -0.0375  0.1163  1.0000  -2.7983   0.0000   0.0000   0.0000   0.2815
   7.300   0.9719   0.01508   0.00775  -0.0372  0.1133  1.0000  -2.8561   0.0000   0.0000   0.0000   0.2807
   7.400   0.9805   0.01523   0.00795  -0.0367  0.1096  1.0000  -2.9138   0.0000   0.0000   0.0000   0.2798
   7.500   0.9884   0.01543   0.00814  -0.0362  0.1058  1.0000  -2.9762   0.0000   0.0000   0.0000   0.2789
   7.600   0.9957   0.01567   0.00836  -0.0356  0.1019  1.0000  -3.0366   0.0000   0.0000   0.0000   0.2779
   7.700   1.0015   0.01604   0.00869  -0.0348  0.0970  1.0000  -3.0894   0.0000   0.0000   0.0000   0.2767
   7.800   1.0088   0.01629   0.00896  -0.0342  0.0943  1.0000  -3.1493   0.0000   0.0000   0.0000   0.2757
   7.900   1.0178   0.01640   0.00911  -0.0338  0.0923  1.0000  -3.2175   0.0000   0.0000   0.0000   0.2750
   8.000   1.0263   0.01654   0.00928  -0.0334  0.0898  1.0000  -3.2843   0.0000   0.0000   0.0000   0.2742
   8.100   1.0346   0.01671   0.00946  -0.0330  0.0870  1.0000  -3.3506   0.0000   0.0000   0.0000   0.2733
   8.200   1.0423   0.01690   0.00965  -0.0325  0.0842  1.0000  -3.4156   0.0000   0.0000   0.0000   0.2725
   8.300   1.0493   0.01715   0.00988  -0.0318  0.0813  1.0000  -3.4779   0.0000   0.0000   0.0000   0.2716
   8.400   1.0550   0.01751   0.01022  -0.0310  0.0780  1.0000  -3.5327   0.0000   0.0000   0.0000   0.2705
   8.500   1.0589   0.01806   0.01078  -0.0299  0.0747  1.0000  -3.5766   0.0000   0.0000   0.0000   0.2692
   8.600   1.0676   0.01817   0.01093  -0.0295  0.0737  1.0000  -3.6465   0.0000   0.0000   0.0000   0.2685
   8.700   1.0759   0.01830   0.01110  -0.0290  0.0725  1.0000  -3.7146   0.0000   0.0000   0.0000   0.2677
   8.800   1.0837   0.01847   0.01130  -0.0285  0.0708  1.0000  -3.7807   0.0000   0.0000   0.0000   0.2669
   8.900   1.0910   0.01865   0.01152  -0.0279  0.0690  1.0000  -3.8527   0.0000   0.0000   0.0000   0.2660
   9.000   1.0980   0.01884   0.01174  -0.0272  0.0671  1.0000  -3.9260   0.0000   0.0000   0.0000   0.2652
   9.100   1.1047   0.01905   0.01196  -0.0266  0.0651  1.0000  -3.9982   0.0000   0.0000   0.0000   0.2643
   9.200   1.1107   0.01930   0.01223  -0.0258  0.0630  1.0000  -4.0675   0.0000   0.0000   0.0000   0.2633
   9.300   1.1155   0.01965   0.01257  -0.0248  0.0608  1.0000  -4.1295   0.0000   0.0000   0.0000   0.2622
   9.400   1.1179   0.02027   0.01320  -0.0234  0.0579  1.0000  -4.1743   0.0000   0.0000   0.0000   0.2608
   9.500   1.1214   0.02094   0.01390  -0.0223  0.0558  1.0000  -4.2217   0.0000   0.0000   0.0000   0.2596
   9.600   1.1288   0.02105   0.01406  -0.0217  0.0550  1.0000  -4.2992   0.0000   0.0000   0.0000   0.2588
   9.700   1.1359   0.02120   0.01425  -0.0211  0.0539  1.0000  -4.3750   0.0000   0.0000   0.0000   0.2580
   9.800   1.1427   0.02140   0.01449  -0.0205  0.0526  1.0000  -4.4489   0.0000   0.0000   0.0000   0.2572
   9.900   1.1492   0.02162   0.01474  -0.0198  0.0511  1.0000  -4.5216   0.0000   0.0000   0.0000   0.2564
  10.000   1.1553   0.02185   0.01500  -0.0191  0.0496  1.0000  -4.5935   0.0000   0.0000   0.0000   0.2555
  10.100   1.1613   0.02209   0.01526  -0.0183  0.0481  1.0000  -4.6652   0.0000   0.0000   0.0000   0.2547
  10.200   1.1669   0.02236   0.01554  -0.0176  0.0468  1.0000  -4.7437   0.0000   0.0000   0.0000   0.2538
  10.300   1.1719   0.02268   0.01588  -0.0167  0.0455  1.0000  -4.8490   0.0000   0.0000   0.0000   0.2529
  10.400   1.1761   0.02310   0.01630  -0.0158  0.0442  1.0000  -4.9473   0.0000   0.0000   0.0000   0.2519
  10.500   1.1793   0.02367   0.01689  -0.0148  0.0428  1.0000  -5.0345   0.0000   0.0000   0.0000   0.2508
  10.600   1.1813   0.02458   0.01784  -0.0136  0.0412  1.0000  -5.1035   0.0000   0.0000   0.0000   0.2497
  10.700   1.1840   0.02586   0.01922  -0.0126  0.0398  1.0000  -5.1655   0.0000   0.0000   0.0000   0.2488
  10.800   1.1898   0.02610   0.01951  -0.0119  0.0395  1.0000  -5.2806   0.0000   0.0000   0.0000   0.2480
  10.900   1.1955   0.02638   0.01983  -0.0112  0.0391  1.0000  -5.3941   0.0000   0.0000   0.0000   0.2472
  11.000   1.2010   0.02670   0.02020  -0.0105  0.0387  1.0000  -5.5060   0.0000   0.0000   0.0000   0.2464
  11.100   1.2063   0.02705   0.02061  -0.0098  0.0382  1.0000  -5.6163   0.0000   0.0000   0.0000   0.2456
  11.200   1.2114   0.02742   0.02104  -0.0091  0.0376  1.0000  -5.7254   0.0000   0.0000   0.0000   0.2448
  11.300   1.2163   0.02781   0.02148  -0.0083  0.0370  1.0000  -5.8339   0.0000   0.0000   0.0000   0.2440
  11.400   1.2209   0.02821   0.02193  -0.0076  0.0364  1.0000  -5.9416   0.0000   0.0000   0.0000   0.2432
  11.500   1.2254   0.02861   0.02238  -0.0068  0.0357  1.0000  -6.0489   0.0000   0.0000   0.0000   0.2424
  11.600   1.2296   0.02901   0.02282  -0.0060  0.0350  1.0000  -6.1563   0.0000   0.0000   0.0000   0.2416
  11.700   1.2338   0.02941   0.02330  -0.0053  0.0344  1.0000  -6.2663   0.0000   0.0000   0.0000   0.2409
  11.800   1.2377   0.02981   0.02374  -0.0045  0.0338  1.0000  -6.3754   0.0000   0.0000   0.0000   0.2401
  11.900   1.2414   0.03021   0.02418  -0.0037  0.0332  1.0000  -6.4827   0.0000   0.0000   0.0000   0.2393
  12.000   1.2449   0.03064   0.02464  -0.0030  0.0326  1.0000  -6.5890   0.0000   0.0000   0.0000   0.2385
  12.100   1.2482   0.03109   0.02512  -0.0022  0.0321  1.0000  -6.6937   0.0000   0.0000   0.0000   0.2377
  12.200   1.2513   0.03158   0.02565  -0.0015  0.0316  1.0000  -6.7960   0.0000   0.0000   0.0000   0.2369
  12.300   1.2540   0.03211   0.02622  -0.0007  0.0312  1.0000  -6.8950   0.0000   0.0000   0.0000   0.2362
  12.400   1.2563   0.03268   0.02684   0.0001  0.0307  1.0000  -6.9906   0.0000   0.0000   0.0000   0.2354
  12.500   1.2583   0.03332   0.02752   0.0009  0.0303  1.0000  -7.0817   0.0000   0.0000   0.0000   0.2346
  12.600   1.2598   0.03406   0.02830   0.0017  0.0298  1.0000  -7.1665   0.0000   0.0000   0.0000   0.2338
  12.700   1.2605   0.03495   0.02924   0.0025  0.0293  1.0000  -7.2403   0.0000   0.0000   0.0000   0.2330
  12.800   1.2603   0.03602   0.03038   0.0033  0.0288  1.0000  -7.3010   0.0000   0.0000   0.0000   0.2322
  12.900   1.2589   0.03734   0.03179   0.0042  0.0283  1.0000  -7.3435   0.0000   0.0000   0.0000   0.2313
  13.000   1.2556   0.03895   0.03353   0.0052  0.0279  1.0000  -7.3616   0.0000   0.0000   0.0000   0.2304
  13.100   1.2500   0.04085   0.03558   0.0062  0.0275  1.0000  -7.3527   0.0000   0.0000   0.0000   0.2295
  13.200   1.2423   0.04296   0.03786   0.0072  0.0272  1.0000  -7.3218   0.0000   0.0000   0.0000   0.2285
  13.300   1.2424   0.04371   0.03866   0.0078  0.0271  1.0000  -7.3950   0.0000   0.0000   0.0000   0.2278
  13.400   1.2423   0.04449   0.03951   0.0084  0.0270  1.0000  -7.4665   0.0000   0.0000   0.0000   0.2272
  13.500   1.2419   0.04533   0.04042   0.0089  0.0269  1.0000  -7.5346   0.0000   0.0000   0.0000   0.2265
  13.600   1.2411   0.04625   0.04140   0.0094  0.0268  1.0000  -7.5967   0.0000   0.0000   0.0000   0.2259
  13.700   1.2398   0.04722   0.04245   0.0099  0.0267  1.0000  -7.6544   0.0000   0.0000   0.0000   0.2254
  13.800   1.2382   0.04825   0.04356   0.0103  0.0265  1.0000  -7.7075   0.0000   0.0000   0.0000   0.2248
  13.900   1.2363   0.04933   0.04471   0.0107  0.0264  1.0000  -7.7580   0.0000   0.0000   0.0000   0.2243
  14.000   1.2341   0.05046   0.04591   0.0110  0.0263  1.0000  -7.8052   0.0000   0.0000   0.0000   0.2239
  14.100   1.2316   0.05165   0.04718   0.0113  0.0261  1.0000  -7.8489   0.0000   0.0000   0.0000   0.2235
  14.200   1.2288   0.05290   0.04850   0.0114  0.0260  1.0000  -7.8887   0.0000   0.0000   0.0000   0.2231
  14.300   1.2257   0.05422   0.04989   0.0115  0.0258  1.0000  -7.9250   0.0000   0.0000   0.0000   0.2229
  14.400   1.2222   0.05562   0.05136   0.0115  0.0257  1.0000  -7.9562   0.0000   0.0000   0.0000   0.2226
  14.500   1.2185   0.05708   0.05290   0.0114  0.0255  1.0000  -7.9835   0.0000   0.0000   0.0000   0.2225
  14.600   1.2142   0.05863   0.05452   0.0113  0.0253  1.0000  -8.0044   0.0000   0.0000   0.0000   0.2224
  14.700   1.2096   0.06027   0.05623   0.0110  0.0252  1.0000  -8.0209   0.0000   0.0000   0.0000   0.2224
  14.800   1.2047   0.06200   0.05804   0.0106  0.0251  1.0000  -8.0320   0.0000   0.0000   0.0000   0.2224
  14.900   1.1993   0.06386   0.05997   0.0101  0.0249  1.0000  -8.0360   0.0000   0.0000   0.0000   0.2226
  15.000   1.1935   0.06583   0.06202   0.0094  0.0248  1.0000  -8.0341   0.0000   0.0000   0.0000   0.2229


