xflr5 v6.61

 Calculated polar for: SG6041

 1 1 Reynolds number fixed          Mach number fixed         

 xtrf =   1.000 (top)        1.000 (bottom)
 Mach =   0.000     Re =     0.375 e 6     Ncrit =   9.000

  alpha     CL        CD       CDp       Cm    Top Xtr Bot Xtr   Cpmin    Chinge    XCp    
 ------- -------- --------- --------- -------- ------- ------- -------- --------- ---------
 -10.000  -0.4161   0.10124   0.09851  -0.0371  1.0000  0.0250  -2.1023   0.0000   0.0000   0.0000   0.1524
  -9.900  -0.4160   0.09986   0.09714  -0.0377  1.0000  0.0250  -2.1160   0.0000   0.0000   0.0000   0.1511
  -9.800  -0.4161   0.09844   0.09574  -0.0382  1.0000  0.0251  -2.1305   0.0000   0.0000   0.0000   0.1499
  -9.700  -0.4164   0.09699   0.09430  -0.0388  1.0000  0.0251  -2.1458   0.0000   0.0000   0.0000   0.1488
  -9.600  -0.4170   0.09552   0.09284  -0.0393  1.0000  0.0252  -2.1620   0.0000   0.0000   0.0000   0.1477
  -9.500  -0.4178   0.09403   0.09136  -0.0398  1.0000  0.0252  -2.1792   0.0000   0.0000   0.0000   0.1468
  -9.400  -0.4187   0.09251   0.08986  -0.0404  1.0000  0.0252  -2.1973   0.0000   0.0000   0.0000   0.1458
  -9.300  -0.4199   0.09097   0.08833  -0.0409  1.0000  0.0252  -2.2168   0.0000   0.0000   0.0000   0.1450
  -9.200  -0.4214   0.08941   0.08679  -0.0414  1.0000  0.0252  -2.2377   0.0000   0.0000   0.0000   0.1441
  -9.100  -0.4233   0.08784   0.08523  -0.0420  1.0000  0.0252  -2.2604   0.0000   0.0000   0.0000   0.1434
  -9.000  -0.4255   0.08624   0.08365  -0.0426  1.0000  0.0252  -2.2853   0.0000   0.0000   0.0000   0.1427
  -8.900  -0.4282   0.08461   0.08204  -0.0432  1.0000  0.0253  -2.3132   0.0000   0.0000   0.0000   0.1420
  -8.800  -0.4315   0.08293   0.08038  -0.0439  1.0000  0.0253  -2.3452   0.0000   0.0000   0.0000   0.1414
  -8.700  -0.4358   0.08119   0.07866  -0.0447  1.0000  0.0253  -2.3834   0.0000   0.0000   0.0000   0.1406
  -7.600  -0.5185   0.06303   0.06034  -0.0447  0.9949  0.0257  -2.9340   0.0000   0.0000   0.0000   0.1587
  -7.500  -0.5222   0.05853   0.05576  -0.0473  0.9928  0.0263  -3.0221   0.0000   0.0000   0.0000   0.1544
  -7.400  -0.5174   0.05624   0.05342  -0.0490  0.9914  0.0267  -3.0021   0.0000   0.0000   0.0000   0.1503
  -7.300  -0.5101   0.05465   0.05180  -0.0503  0.9905  0.0270  -2.9450   0.0000   0.0000   0.0000   0.1465
  -7.200  -0.5053   0.05346   0.05058  -0.0505  0.9886  0.0272  -2.8907   0.0000   0.0000   0.0000   0.1451
  -7.100  -0.4995   0.05224   0.04933  -0.0510  0.9868  0.0275  -2.8345   0.0000   0.0000   0.0000   0.1430
  -7.000  -0.4930   0.05101   0.04806  -0.0516  0.9849  0.0278  -2.7787   0.0000   0.0000   0.0000   0.1404
  -6.900  -0.4860   0.04976   0.04677  -0.0523  0.9831  0.0281  -2.7244   0.0000   0.0000   0.0000   0.1376
  -6.800  -0.4785   0.04849   0.04544  -0.0530  0.9814  0.0285  -2.6718   0.0000   0.0000   0.0000   0.1344
  -6.700  -0.4704   0.04717   0.04406  -0.0539  0.9798  0.0289  -2.6208   0.0000   0.0000   0.0000   0.1308
  -6.600  -0.4616   0.04582   0.04264  -0.0547  0.9784  0.0293  -2.5717   0.0000   0.0000   0.0000   0.1267
  -6.500  -0.4523   0.04444   0.04119  -0.0556  0.9770  0.0299  -2.5240   0.0000   0.0000   0.0000   0.1223
  -6.400  -0.4424   0.04304   0.03970  -0.0566  0.9758  0.0305  -2.4785   0.0000   0.0000   0.0000   0.1174
  -6.300  -0.4321   0.04162   0.03819  -0.0575  0.9747  0.0312  -2.4548   0.0000   0.0000   0.0000   0.1122
  -6.200  -0.4212   0.04020   0.03666  -0.0584  0.9738  0.0320  -2.4372   0.0000   0.0000   0.0000   0.1065
  -5.500  -0.3739   0.02271   0.01717  -0.0547  0.9595  0.0178  -3.3302   0.0000   0.0000   0.0000   0.0982
  -5.400  -0.3607   0.02247   0.01685  -0.0549  0.9583  0.0174  -3.2694   0.0000   0.0000   0.0000   0.0922
  -5.300  -0.3475   0.02226   0.01660  -0.0553  0.9573  0.0171  -3.1906   0.0000   0.0000   0.0000   0.0853
  -5.100  -0.3244   0.01991   0.01401  -0.0556  0.9555  0.0163  -3.1812   0.0000   0.0000   0.0000   0.0727
  -5.000  -0.3122   0.01886   0.01280  -0.0559  0.9547  0.0161  -3.1719   0.0000   0.0000   0.0000   0.0651
  -4.900  -0.2993   0.01802   0.01185  -0.0562  0.9539  0.0160  -3.1481   0.0000   0.0000   0.0000   0.0562
  -4.800  -0.2862   0.01729   0.01103  -0.0566  0.9533  0.0159  -3.1162   0.0000   0.0000   0.0000   0.0462
  -4.700  -0.2728   0.01664   0.01030  -0.0570  0.9526  0.0159  -3.0781   0.0000   0.0000   0.0000   0.0348
  -4.600  -0.2592   0.01607   0.00965  -0.0575  0.9520  0.0159  -3.0351   0.0000   0.0000   0.0000   0.0219
  -4.500  -0.2455   0.01555   0.00908  -0.0580  0.9514  0.0160  -2.9877   0.0000   0.0000   0.0000   0.0073
  -4.400  -0.2316   0.01510   0.00857  -0.0585  0.9509  0.0162  -2.9364   0.0000   0.0000   0.0000  -0.0094
  -4.300  -0.2174   0.01470   0.00813  -0.0591  0.9504  0.0165  -2.8808   0.0000   0.0000   0.0000  -0.0289
  -4.200  -0.2029   0.01437   0.00776  -0.0598  0.9498  0.0168  -2.8192   0.0000   0.0000   0.0000  -0.0519
  -4.100  -0.1899   0.01360   0.00693  -0.0602  0.9493  0.0178  -2.8210   0.0000   0.0000   0.0000  -0.0746
  -4.000  -0.1905   0.01333   0.00663  -0.0578  0.9447  0.0186  -2.8173   0.0000   0.0000   0.0000  -0.0606
  -3.900  -0.1827   0.01308   0.00638  -0.0571  0.9420  0.0201  -2.7757   0.0000   0.0000   0.0000  -0.0696
  -3.800  -0.1717   0.01288   0.00619  -0.0570  0.9401  0.0224  -2.7219   0.0000   0.0000   0.0000  -0.0896
  -3.700  -0.1592   0.01273   0.00602  -0.0572  0.9386  0.0252  -2.6669   0.0000   0.0000   0.0000  -0.1172
  -3.600  -0.1477   0.01227   0.00560  -0.0573  0.9371  0.0346  -2.6455   0.0000   0.0000   0.0000  -0.1463
  -3.500  -0.1346   0.01198   0.00535  -0.0577  0.9359  0.0456  -2.5756   0.0000   0.0000   0.0000  -0.1872
  -3.400  -0.1204   0.01188   0.00526  -0.0584  0.9350  0.0543  -2.4676   0.0000   0.0000   0.0000  -0.2445
  -3.300  -0.1067   0.01163   0.00510  -0.0590  0.9340  0.0682  -2.3650   0.0000   0.0000   0.0000  -0.3131
  -3.200  -0.0919   0.01157   0.00502  -0.0598  0.9332  0.0758  -2.2483   0.0000   0.0000   0.0000  -0.4121
  -3.100  -0.0783   0.01128   0.00482  -0.0604  0.9322  0.0913  -2.1483   0.0000   0.0000   0.0000  -0.5341
  -3.000  -0.0642   0.01110   0.00466  -0.0610  0.9313  0.1048  -2.0438   0.0000   0.0000   0.0000  -0.7143
  -2.900  -0.0506   0.01085   0.00452  -0.0616  0.9304  0.1276  -1.9410   0.0000   0.0000   0.0000  -0.9839
  -2.800  -0.0375   0.01053   0.00437  -0.0622  0.9295  0.1715  -1.8406   0.0000   0.0000   0.0000  -1.4302
  -2.700  -0.0255   0.01003   0.00423  -0.0627  0.9285  0.2574  -1.7455   0.0000   0.0000   0.0000  -2.2453
  -2.600  -0.0147   0.00943   0.00408  -0.0630  0.9274  0.3788  -1.6563   0.0000   0.0000   0.0000  -4.1035
  -2.500  -0.0050   0.00883   0.00398  -0.0630  0.9262  0.5124  -1.5717   0.0000   0.0000   0.0000  -12.4123
  -2.400  -0.0007   0.00856   0.00402  -0.0616  0.9232  0.5939  -1.5080   0.0000   0.0000   0.0000  -94.0549
  -2.300   0.0044   0.00843   0.00407  -0.0602  0.9197  0.6443  -1.4417   0.0000   0.0000   0.0000  14.0413
  -2.200   0.0135   0.00835   0.00406  -0.0596  0.9171  0.6797  -1.3599   0.0000   0.0000   0.0000   4.7034
  -2.100   0.0242   0.00828   0.00403  -0.0593  0.9149  0.7040  -1.2706   0.0000   0.0000   0.0000   2.7292
  -2.000   0.0356   0.00821   0.00400  -0.0592  0.9130  0.7216  -1.1829   0.0000   0.0000   0.0000   1.9282
  -1.900   0.0481   0.00815   0.00394  -0.0593  0.9113  0.7352  -1.0929   0.0000   0.0000   0.0000   1.4941
  -1.800   0.0609   0.00809   0.00389  -0.0595  0.9097  0.7478  -1.0033   0.0000   0.0000   0.0000   1.2344
  -1.700   0.0741   0.00803   0.00383  -0.0598  0.9082  0.7580  -0.9143   0.0000   0.0000   0.0000   1.0628
  -1.600   0.0871   0.00797   0.00378  -0.0600  0.9067  0.7675  -0.8273   0.0000   0.0000   0.0000   0.9428
  -1.500   0.1005   0.00793   0.00372  -0.0603  0.9052  0.7771  -0.7414   0.0000   0.0000   0.0000   0.8535
  -1.400   0.1133   0.00788   0.00368  -0.0604  0.9037  0.7861  -0.6686   0.0000   0.0000   0.0000   0.7861
  -1.300   0.1260   0.00785   0.00366  -0.0605  0.9021  0.7956  -0.6054   0.0000   0.0000   0.0000   0.7326
  -1.200   0.1344   0.00786   0.00365  -0.0598  0.8990  0.8034  -0.5547   0.0000   0.0000   0.0000   0.6971
  -1.100   0.1428   0.00783   0.00366  -0.0591  0.8957  0.8105  -0.5046   0.0000   0.0000   0.0000   0.6653
  -1.000   0.1525   0.00780   0.00364  -0.0586  0.8927  0.8183  -0.4567   0.0000   0.0000   0.0000   0.6353
  -0.900   0.1635   0.00777   0.00359  -0.0584  0.8899  0.8256  -0.4214   0.0000   0.0000   0.0000   0.6081
  -0.800   0.1748   0.00772   0.00354  -0.0582  0.8874  0.8320  -0.3982   0.0000   0.0000   0.0000   0.5836
  -0.700   0.1861   0.00767   0.00351  -0.0580  0.8850  0.8398  -0.4079   0.0000   0.0000   0.0000   0.5619
  -0.600   0.1974   0.00765   0.00347  -0.0578  0.8827  0.8494  -0.4176   0.0000   0.0000   0.0000   0.5427
  -0.500   0.2083   0.00760   0.00345  -0.0573  0.8805  0.8588  -0.4279   0.0000   0.0000   0.0000   0.5253
  -0.400   0.2192   0.00759   0.00345  -0.0570  0.8782  0.8687  -0.4394   0.0000   0.0000   0.0000   0.5096
  -0.300   0.2272   0.00760   0.00345  -0.0561  0.8747  0.8769  -0.4490   0.0000   0.0000   0.0000   0.4966
  -0.200   0.2354   0.00757   0.00345  -0.0552  0.8710  0.8835  -0.4589   0.0000   0.0000   0.0000   0.4841
  -0.100   0.2445   0.00754   0.00344  -0.0546  0.8674  0.8898  -0.4693   0.0000   0.0000   0.0000   0.4725
   0.000   0.2546   0.00751   0.00339  -0.0541  0.8639  0.8959  -0.4812   0.0000   0.0000   0.0000   0.4618
   0.100   0.2654   0.00747   0.00334  -0.0539  0.8608  0.9009  -0.4939   0.0000   0.0000   0.0000   0.4521
   0.200   0.2770   0.00742   0.00328  -0.0537  0.8579  0.9050  -0.5072   0.0000   0.0000   0.0000   0.4430
   0.300   0.2892   0.00739   0.00323  -0.0538  0.8551  0.9088  -0.5210   0.0000   0.0000   0.0000   0.4347
   0.400   0.2998   0.00737   0.00321  -0.0535  0.8518  0.9129  -0.5351   0.0000   0.0000   0.0000   0.4271
   0.500   0.3087   0.00735   0.00320  -0.0529  0.8475  0.9175  -0.5481   0.0000   0.0000   0.0000   0.4200
   0.600   0.3183   0.00733   0.00316  -0.0525  0.8432  0.9218  -0.5618   0.0000   0.0000   0.0000   0.4134
   0.700   0.3293   0.00729   0.00311  -0.0523  0.8390  0.9254  -0.5784   0.0000   0.0000   0.0000   0.4073
   0.800   0.3418   0.00724   0.00306  -0.0524  0.8351  0.9284  -0.5965   0.0000   0.0000   0.0000   0.4017
   0.900   0.3551   0.00722   0.00300  -0.0527  0.8314  0.9313  -0.6154   0.0000   0.0000   0.0000   0.3967
   1.000   0.3670   0.00720   0.00298  -0.0528  0.8272  0.9347  -0.6331   0.0000   0.0000   0.0000   0.3919
   1.100   0.3775   0.00719   0.00298  -0.0525  0.8221  0.9388  -0.6496   0.0000   0.0000   0.0000   0.3872
   1.200   0.3884   0.00717   0.00295  -0.0524  0.8171  0.9429  -0.6667   0.0000   0.0000   0.0000   0.3829
   1.300   0.3993   0.00715   0.00292  -0.0522  0.8123  0.9470  -0.6838   0.0000   0.0000   0.0000   0.3787
   1.400   0.4134   0.00713   0.00287  -0.0528  0.8080  0.9495  -0.7038   0.0000   0.0000   0.0000   0.3754
   1.500   0.4280   0.00712   0.00285  -0.0534  0.8032  0.9518  -0.7241   0.0000   0.0000   0.0000   0.3725
   1.600   0.4418   0.00712   0.00286  -0.0539  0.7969  0.9545  -0.7458   0.0000   0.0000   0.0000   0.3698
   1.700   0.4559   0.00711   0.00284  -0.0545  0.7906  0.9571  -0.7692   0.0000   0.0000   0.0000   0.3671
   1.800   0.4702   0.00710   0.00280  -0.0550  0.7847  0.9597  -0.7929   0.0000   0.0000   0.0000   0.3646
   1.900   0.4838   0.00710   0.00279  -0.0555  0.7779  0.9627  -0.8176   0.0000   0.0000   0.0000   0.3622
   2.000   0.4965   0.00710   0.00278  -0.0558  0.7696  0.9661  -0.8440   0.0000   0.0000   0.0000   0.3598
   2.100   0.5091   0.00710   0.00275  -0.0560  0.7616  0.9695  -0.8704   0.0000   0.0000   0.0000   0.3573
   2.200   0.5231   0.00711   0.00273  -0.0566  0.7534  0.9719  -0.8986   0.0000   0.0000   0.0000   0.3554
   2.300   0.5387   0.00712   0.00272  -0.0575  0.7437  0.9735  -0.9289   0.0000   0.0000   0.0000   0.3539
   2.500   0.5699   0.00716   0.00271  -0.0594  0.7252  0.9769  -0.9901   0.0000   0.0000   0.0000   0.3512
   2.600   0.5849   0.00720   0.00270  -0.0602  0.7148  0.9789  -1.0204   0.0000   0.0000   0.0000   0.3499
   2.700   0.5996   0.00724   0.00270  -0.0610  0.7040  0.9812  -1.0535   0.0000   0.0000   0.0000   0.3485
   2.800   0.6136   0.00729   0.00272  -0.0616  0.6906  0.9839  -1.0881   0.0000   0.0000   0.0000   0.3471
   2.900   0.6272   0.00734   0.00273  -0.0621  0.6762  0.9867  -1.1225   0.0000   0.0000   0.0000   0.3457
   3.000   0.6400   0.00743   0.00274  -0.0625  0.6603  0.9897  -1.1561   0.0000   0.0000   0.0000   0.3442
   3.100   0.6543   0.00752   0.00275  -0.0632  0.6421  0.9919  -1.1919   0.0000   0.0000   0.0000   0.3431
   3.200   0.6690   0.00761   0.00276  -0.0640  0.6229  0.9944  -1.2286   0.0000   0.0000   0.0000   0.3421
   3.300   0.6833   0.00772   0.00278  -0.0648  0.6026  0.9970  -1.2650   0.0000   0.0000   0.0000   0.3411
   3.400   0.6974   0.00786   0.00282  -0.0655  0.5801  0.9995  -1.3014   0.0000   0.0000   0.0000   0.3402
   3.500   0.7029   0.00797   0.00284  -0.0645  0.5619  1.0000  -1.3252   0.0000   0.0000   0.0000   0.3380
   3.600   0.7059   0.00808   0.00287  -0.0630  0.5447  1.0000  -1.3452   0.0000   0.0000   0.0000   0.3353
   3.700   0.7099   0.00818   0.00290  -0.0616  0.5278  1.0000  -1.3668   0.0000   0.0000   0.0000   0.3328
   3.800   0.7143   0.00831   0.00294  -0.0603  0.5115  1.0000  -1.3891   0.0000   0.0000   0.0000   0.3304
   4.000   0.7248   0.00858   0.00306  -0.0581  0.4773  1.0000  -1.4367   0.0000   0.0000   0.0000   0.3259
   4.100   0.7306   0.00873   0.00312  -0.0571  0.4596  1.0000  -1.4615   0.0000   0.0000   0.0000   0.3238
   4.200   0.7364   0.00890   0.00320  -0.0561  0.4415  1.0000  -1.4864   0.0000   0.0000   0.0000   0.3217
   4.400   0.7487   0.00925   0.00340  -0.0542  0.4038  1.0000  -1.5376   0.0000   0.0000   0.0000   0.3178
   4.500   0.7553   0.00942   0.00349  -0.0534  0.3855  1.0000  -1.5640   0.0000   0.0000   0.0000   0.3160
   4.600   0.7620   0.00960   0.00358  -0.0526  0.3679  1.0000  -1.5907   0.0000   0.0000   0.0000   0.3142
   4.700   0.7686   0.00980   0.00368  -0.0518  0.3505  1.0000  -1.6209   0.0000   0.0000   0.0000   0.3124
   4.800   0.7763   0.00996   0.00378  -0.0511  0.3344  1.0000  -1.6596   0.0000   0.0000   0.0000   0.3109
   4.900   0.7837   0.01013   0.00388  -0.0505  0.3198  1.0000  -1.6989   0.0000   0.0000   0.0000   0.3093
   5.000   0.7911   0.01031   0.00399  -0.0498  0.3047  1.0000  -1.7382   0.0000   0.0000   0.0000   0.3078
   5.100   0.7991   0.01047   0.00409  -0.0493  0.2910  1.0000  -1.7792   0.0000   0.0000   0.0000   0.3064
   5.200   0.8066   0.01066   0.00421  -0.0487  0.2773  1.0000  -1.8193   0.0000   0.0000   0.0000   0.3049
   5.300   0.8148   0.01082   0.00432  -0.0481  0.2642  1.0000  -1.8612   0.0000   0.0000   0.0000   0.3036
   5.400   0.8226   0.01101   0.00444  -0.0476  0.2519  1.0000  -1.9024   0.0000   0.0000   0.0000   0.3023
   5.500   0.8308   0.01117   0.00456  -0.0471  0.2398  1.0000  -1.9469   0.0000   0.0000   0.0000   0.3010
   5.600   0.8387   0.01136   0.00468  -0.0465  0.2286  1.0000  -1.9954   0.0000   0.0000   0.0000   0.2997
   5.700   0.8470   0.01152   0.00481  -0.0461  0.2179  1.0000  -2.0455   0.0000   0.0000   0.0000   0.2985
   5.800   0.8548   0.01172   0.00494  -0.0455  0.2072  1.0000  -2.0942   0.0000   0.0000   0.0000   0.2973
   5.900   0.8635   0.01186   0.00510  -0.0451  0.1983  1.0000  -2.1460   0.0000   0.0000   0.0000   0.2962
   6.000   0.8713   0.01207   0.00524  -0.0446  0.1886  1.0000  -2.1957   0.0000   0.0000   0.0000   0.2950
   6.100   0.8798   0.01223   0.00538  -0.0441  0.1806  1.0000  -2.2473   0.0000   0.0000   0.0000   0.2939
   6.200   0.8882   0.01239   0.00551  -0.0437  0.1726  1.0000  -2.2992   0.0000   0.0000   0.0000   0.2928
   6.300   0.8958   0.01262   0.00567  -0.0431  0.1638  1.0000  -2.3491   0.0000   0.0000   0.0000   0.2916
   6.400   0.9045   0.01276   0.00582  -0.0427  0.1574  1.0000  -2.4025   0.0000   0.0000   0.0000   0.2906
   6.500   0.9130   0.01293   0.00596  -0.0423  0.1504  1.0000  -2.4556   0.0000   0.0000   0.0000   0.2896
   6.600   0.9206   0.01315   0.00612  -0.0417  0.1427  1.0000  -2.5066   0.0000   0.0000   0.0000   0.2885
   6.700   0.9289   0.01333   0.00629  -0.0412  0.1366  1.0000  -2.5596   0.0000   0.0000   0.0000   0.2875
   6.800   0.9377   0.01347   0.00643  -0.0408  0.1314  1.0000  -2.6148   0.0000   0.0000   0.0000   0.2865
   6.900   0.9458   0.01366   0.00659  -0.0404  0.1256  1.0000  -2.6683   0.0000   0.0000   0.0000   0.2856
   7.000   0.9529   0.01393   0.00680  -0.0397  0.1187  1.0000  -2.7183   0.0000   0.0000   0.0000   0.2844
   7.100   0.9614   0.01409   0.00697  -0.0393  0.1148  1.0000  -2.7731   0.0000   0.0000   0.0000   0.2835
   7.200   0.9703   0.01422   0.00712  -0.0389  0.1112  1.0000  -2.8298   0.0000   0.0000   0.0000   0.2826
   7.300   0.9786   0.01439   0.00728  -0.0385  0.1072  1.0000  -2.8849   0.0000   0.0000   0.0000   0.2817
   7.400   0.9863   0.01460   0.00749  -0.0379  0.1030  1.0000  -2.9430   0.0000   0.0000   0.0000   0.2808
   7.500   0.9930   0.01490   0.00775  -0.0372  0.0979  1.0000  -2.9998   0.0000   0.0000   0.0000   0.2797
   7.600   1.0002   0.01515   0.00801  -0.0366  0.0945  1.0000  -3.0591   0.0000   0.0000   0.0000   0.2786
   7.700   1.0094   0.01525   0.00814  -0.0363  0.0925  1.0000  -3.1278   0.0000   0.0000   0.0000   0.2779
   7.800   1.0182   0.01538   0.00830  -0.0359  0.0900  1.0000  -3.1955   0.0000   0.0000   0.0000   0.2771
   7.900   1.0265   0.01554   0.00847  -0.0355  0.0871  1.0000  -3.2621   0.0000   0.0000   0.0000   0.2763
   8.000   1.0344   0.01573   0.00864  -0.0350  0.0841  1.0000  -3.3275   0.0000   0.0000   0.0000   0.2754
   8.100   1.0417   0.01597   0.00885  -0.0344  0.0810  1.0000  -3.3903   0.0000   0.0000   0.0000   0.2745
   8.200   1.0475   0.01632   0.00919  -0.0335  0.0774  1.0000  -3.4452   0.0000   0.0000   0.0000   0.2733
   8.300   1.0529   0.01670   0.00959  -0.0326  0.0745  1.0000  -3.4973   0.0000   0.0000   0.0000   0.2722
   8.400   1.0618   0.01681   0.00973  -0.0322  0.0736  1.0000  -3.5679   0.0000   0.0000   0.0000   0.2715
   8.500   1.0703   0.01694   0.00990  -0.0318  0.0723  1.0000  -3.6372   0.0000   0.0000   0.0000   0.2707
   8.600   1.0785   0.01709   0.01009  -0.0314  0.0706  1.0000  -3.7053   0.0000   0.0000   0.0000   0.2699
   8.700   1.0864   0.01726   0.01028  -0.0309  0.0688  1.0000  -3.7728   0.0000   0.0000   0.0000   0.2691
   8.800   1.0941   0.01744   0.01048  -0.0303  0.0669  1.0000  -3.8437   0.0000   0.0000   0.0000   0.2683
   8.900   1.1013   0.01765   0.01068  -0.0297  0.0649  1.0000  -3.9180   0.0000   0.0000   0.0000   0.2675
   9.000   1.1076   0.01789   0.01092  -0.0290  0.0627  1.0000  -3.9888   0.0000   0.0000   0.0000   0.2665
   9.100   1.1124   0.01823   0.01125  -0.0280  0.0602  1.0000  -4.0506   0.0000   0.0000   0.0000   0.2653
   9.200   1.1143   0.01882   0.01189  -0.0265  0.0572  1.0000  -4.0936   0.0000   0.0000   0.0000   0.2639
   9.300   1.1193   0.01919   0.01229  -0.0255  0.0557  1.0000  -4.1549   0.0000   0.0000   0.0000   0.2628
   9.400   1.1273   0.01929   0.01242  -0.0250  0.0549  1.0000  -4.2357   0.0000   0.0000   0.0000   0.2620
   9.500   1.1348   0.01942   0.01259  -0.0244  0.0537  1.0000  -4.3144   0.0000   0.0000   0.0000   0.2612
   9.600   1.1419   0.01958   0.01279  -0.0238  0.0522  1.0000  -4.3910   0.0000   0.0000   0.0000   0.2604
   9.700   1.1486   0.01977   0.01300  -0.0232  0.0506  1.0000  -4.4663   0.0000   0.0000   0.0000   0.2596
   9.800   1.1552   0.01998   0.01322  -0.0225  0.0490  1.0000  -4.5414   0.0000   0.0000   0.0000   0.2587
   9.900   1.1615   0.02020   0.01345  -0.0218  0.0475  1.0000  -4.6159   0.0000   0.0000   0.0000   0.2579
  10.000   1.1670   0.02047   0.01373  -0.0210  0.0460  1.0000  -4.6863   0.0000   0.0000   0.0000   0.2570
  10.100   1.1714   0.02083   0.01409  -0.0200  0.0444  1.0000  -4.7490   0.0000   0.0000   0.0000   0.2559
  10.200   1.1740   0.02136   0.01463  -0.0187  0.0427  1.0000  -4.8297   0.0000   0.0000   0.0000   0.2547
  10.300   1.1744   0.02219   0.01552  -0.0172  0.0409  1.0000  -4.8878   0.0000   0.0000   0.0000   0.2533
  10.400   1.1768   0.02296   0.01635  -0.0160  0.0397  1.0000  -4.9624   0.0000   0.0000   0.0000   0.2521
  10.500   1.1834   0.02315   0.01657  -0.0154  0.0393  1.0000  -5.0829   0.0000   0.0000   0.0000   0.2514
  10.600   1.1898   0.02337   0.01683  -0.0148  0.0389  1.0000  -5.2018   0.0000   0.0000   0.0000   0.2506
  10.700   1.1958   0.02363   0.01714  -0.0141  0.0384  1.0000  -5.3182   0.0000   0.0000   0.0000   0.2498
  10.800   1.2015   0.02392   0.01748  -0.0134  0.0378  1.0000  -5.4321   0.0000   0.0000   0.0000   0.2490
  10.900   1.2069   0.02425   0.01785  -0.0126  0.0371  1.0000  -5.5444   0.0000   0.0000   0.0000   0.2482
  11.000   1.2122   0.02458   0.01822  -0.0119  0.0365  1.0000  -5.6563   0.0000   0.0000   0.0000   0.2474
  11.100   1.2173   0.02492   0.01860  -0.0111  0.0357  1.0000  -5.7687   0.0000   0.0000   0.0000   0.2466
  11.200   1.2224   0.02525   0.01897  -0.0104  0.0350  1.0000  -5.8820   0.0000   0.0000   0.0000   0.2458
  11.300   1.2273   0.02558   0.01934  -0.0096  0.0343  1.0000  -5.9956   0.0000   0.0000   0.0000   0.2450
  11.400   1.2321   0.02591   0.01970  -0.0089  0.0336  1.0000  -6.1096   0.0000   0.0000   0.0000   0.2442
  11.500   1.2366   0.02625   0.02006  -0.0081  0.0330  1.0000  -6.2239   0.0000   0.0000   0.0000   0.2434
  11.600   1.2411   0.02659   0.02046  -0.0074  0.0323  1.0000  -6.3409   0.0000   0.0000   0.0000   0.2426
  11.700   1.2453   0.02695   0.02085  -0.0066  0.0317  1.0000  -6.4549   0.0000   0.0000   0.0000   0.2418
  11.800   1.2489   0.02737   0.02130  -0.0058  0.0311  1.0000  -6.5627   0.0000   0.0000   0.0000   0.2410
  11.900   1.2518   0.02787   0.02182  -0.0050  0.0306  1.0000  -6.6635   0.0000   0.0000   0.0000   0.2402
  12.000   1.2541   0.02846   0.02245  -0.0040  0.0300  1.0000  -6.7564   0.0000   0.0000   0.0000   0.2393
  12.100   1.2558   0.02917   0.02320  -0.0031  0.0294  1.0000  -6.8406   0.0000   0.0000   0.0000   0.2384
  12.200   1.2566   0.03005   0.02413  -0.0021  0.0288  1.0000  -6.9127   0.0000   0.0000   0.0000   0.2374
  12.300   1.2562   0.03117   0.02533  -0.0010  0.0282  1.0000  -6.9676   0.0000   0.0000   0.0000   0.2364
  12.400   1.2542   0.03268   0.02698   0.0001  0.0276  1.0000  -6.9960   0.0000   0.0000   0.0000   0.2354
  12.500   1.2535   0.03395   0.02836   0.0011  0.0272  1.0000  -7.0434   0.0000   0.0000   0.0000   0.2345
  12.600   1.2567   0.03441   0.02886   0.0018  0.0270  1.0000  -7.1488   0.0000   0.0000   0.0000   0.2337
  12.700   1.2596   0.03490   0.02942   0.0025  0.0269  1.0000  -7.2506   0.0000   0.0000   0.0000   0.2330
  12.800   1.2622   0.03544   0.03001   0.0031  0.0267  1.0000  -7.3497   0.0000   0.0000   0.0000   0.2323
  12.900   1.2645   0.03602   0.03065   0.0038  0.0265  1.0000  -7.4463   0.0000   0.0000   0.0000   0.2316
  13.000   1.2666   0.03664   0.03133   0.0045  0.0263  1.0000  -7.5395   0.0000   0.0000   0.0000   0.2309
  13.100   1.2681   0.03731   0.03207   0.0052  0.0261  1.0000  -7.6282   0.0000   0.0000   0.0000   0.2302
  13.200   1.2694   0.03802   0.03284   0.0058  0.0259  1.0000  -7.7137   0.0000   0.0000   0.0000   0.2296
  13.300   1.2704   0.03877   0.03365   0.0065  0.0257  1.0000  -7.7962   0.0000   0.0000   0.0000   0.2289
  13.400   1.2710   0.03956   0.03451   0.0071  0.0254  1.0000  -7.8747   0.0000   0.0000   0.0000   0.2282
  13.500   1.2714   0.04037   0.03539   0.0077  0.0252  1.0000  -7.9524   0.0000   0.0000   0.0000   0.2276
  13.600   1.2719   0.04117   0.03625   0.0082  0.0249  1.0000  -8.0315   0.0000   0.0000   0.0000   0.2270
  13.700   1.2722   0.04199   0.03713   0.0088  0.0246  1.0000  -8.1099   0.0000   0.0000   0.0000   0.2264
  13.800   1.2722   0.04281   0.03801   0.0092  0.0244  1.0000  -8.1875   0.0000   0.0000   0.0000   0.2258
  13.900   1.2723   0.04364   0.03889   0.0097  0.0240  1.0000  -8.2665   0.0000   0.0000   0.0000   0.2253
  14.000   1.2723   0.04447   0.03977   0.0100  0.0237  1.0000  -8.3455   0.0000   0.0000   0.0000   0.2248
  14.100   1.2725   0.04528   0.04063   0.0104  0.0234  1.0000  -8.4280   0.0000   0.0000   0.0000   0.2243
  14.200   1.2726   0.04610   0.04149   0.0107  0.0230  1.0000  -8.5116   0.0000   0.0000   0.0000   0.2239
  14.300   1.2730   0.04690   0.04233   0.0109  0.0227  1.0000  -8.5990   0.0000   0.0000   0.0000   0.2236
  14.400   1.2735   0.04770   0.04316   0.0110  0.0224  1.0000  -8.6894   0.0000   0.0000   0.0000   0.2232
  14.500   1.2740   0.04850   0.04399   0.0112  0.0220  1.0000  -8.7816   0.0000   0.0000   0.0000   0.2229
  14.600   1.2748   0.04929   0.04480   0.0112  0.0217  1.0000  -8.8778   0.0000   0.0000   0.0000   0.2227
  14.700   1.2754   0.05013   0.04566   0.0112  0.0213  1.0000  -8.9715   0.0000   0.0000   0.0000   0.2225
  14.800   1.2758   0.05101   0.04656   0.0112  0.0210  1.0000  -9.0642   0.0000   0.0000   0.0000   0.2223
  14.900   1.2755   0.05200   0.04757   0.0111  0.0207  1.0000  -9.1480   0.0000   0.0000   0.0000   0.2221
  15.000   1.2746   0.05311   0.04871   0.0110  0.0204  1.0000  -9.2218   0.0000   0.0000   0.0000   0.2220


