xflr5 v6.61

 Calculated polar for: SG6041

 1 1 Reynolds number fixed          Mach number fixed         

 xtrf =   1.000 (top)        1.000 (bottom)
 Mach =   0.000     Re =     0.450 e 6     Ncrit =   9.000

  alpha     CL        CD       CDp       Cm    Top Xtr Bot Xtr   Cpmin    Chinge    XCp    
 ------- -------- --------- --------- -------- ------- ------- -------- --------- ---------
 -10.000  -0.4255   0.09872   0.09623  -0.0348  1.0000  0.0192  -2.1538   0.0000   0.0000   0.0000   0.1599
  -9.900  -0.4249   0.09756   0.09508  -0.0349  1.0000  0.0194  -2.1384   0.0000   0.0000   0.0000   0.1595
  -9.800  -0.4247   0.09636   0.09388  -0.0352  1.0000  0.0197  -2.1273   0.0000   0.0000   0.0000   0.1591
  -9.700  -0.4247   0.09512   0.09265  -0.0354  1.0000  0.0200  -2.1204   0.0000   0.0000   0.0000   0.1586
  -9.600  -0.4250   0.09384   0.09139  -0.0357  1.0000  0.0202  -2.1175   0.0000   0.0000   0.0000   0.1582
  -9.500  -0.4255   0.09253   0.09009  -0.0360  1.0000  0.0205  -2.1185   0.0000   0.0000   0.0000   0.1577
  -9.400  -0.4264   0.09119   0.08877  -0.0363  1.0000  0.0208  -2.1230   0.0000   0.0000   0.0000   0.1573
  -9.300  -0.4275   0.08982   0.08741  -0.0366  1.0000  0.0210  -2.1309   0.0000   0.0000   0.0000   0.1569
  -9.200  -0.4289   0.08842   0.08603  -0.0369  1.0000  0.0213  -2.1419   0.0000   0.0000   0.0000   0.1565
  -9.100  -0.4307   0.08701   0.08463  -0.0372  1.0000  0.0215  -2.1561   0.0000   0.0000   0.0000   0.1563
  -9.000  -0.4329   0.08559   0.08322  -0.0376  1.0000  0.0217  -2.1726   0.0000   0.0000   0.0000   0.1561
  -8.900  -0.4355   0.08416   0.08181  -0.0379  1.0000  0.0219  -2.1919   0.0000   0.0000   0.0000   0.1561
  -8.800  -0.4386   0.08272   0.08039  -0.0381  1.0000  0.0221  -2.2139   0.0000   0.0000   0.0000   0.1562
  -8.700  -0.4423   0.08129   0.07898  -0.0384  1.0000  0.0223  -2.2386   0.0000   0.0000   0.0000   0.1566
  -8.600  -0.4467   0.07988   0.07760  -0.0385  1.0000  0.0224  -2.2657   0.0000   0.0000   0.0000   0.1573
  -8.500  -0.4522   0.07852   0.07626  -0.0386  1.0000  0.0225  -2.2952   0.0000   0.0000   0.0000   0.1584
  -8.400  -0.4589   0.07723   0.07499  -0.0384  1.0000  0.0225  -2.3268   0.0000   0.0000   0.0000   0.1601
  -8.300  -0.4671   0.07604   0.07383  -0.0381  1.0000  0.0224  -2.3606   0.0000   0.0000   0.0000   0.1625
  -8.200  -0.4774   0.07500   0.07281  -0.0375  1.0000  0.0223  -2.3977   0.0000   0.0000   0.0000   0.1658
  -8.100  -0.4904   0.07411   0.07196  -0.0366  1.0000  0.0220  -2.4404   0.0000   0.0000   0.0000   0.1699
  -8.000  -0.5059   0.07344   0.07130  -0.0352  1.0000  0.0216  -2.4894   0.0000   0.0000   0.0000   0.1751
  -7.900  -0.5090   0.07113   0.06897  -0.0378  0.9986  0.0217  -2.5367   0.0000   0.0000   0.0000   0.1706
  -7.800  -0.5033   0.06789   0.06568  -0.0421  0.9964  0.0221  -2.5761   0.0000   0.0000   0.0000   0.1612
  -7.700  -0.4970   0.06482   0.06255  -0.0459  0.9942  0.0225  -2.6139   0.0000   0.0000   0.0000   0.1525
  -7.600  -0.4905   0.06195   0.05961  -0.0492  0.9924  0.0231  -2.6553   0.0000   0.0000   0.0000   0.1446
  -7.500  -0.4812   0.05935   0.05690  -0.0522  0.9911  0.0240  -2.6983   0.0000   0.0000   0.0000   0.1364
  -7.400  -0.4686   0.05836   0.05582  -0.0536  0.9898  0.0248  -2.6828   0.0000   0.0000   0.0000   0.1304
  -7.300  -0.4631   0.05693   0.05431  -0.0544  0.9875  0.0250  -2.6822   0.0000   0.0000   0.0000   0.1273
  -7.200  -0.4578   0.05529   0.05257  -0.0553  0.9851  0.0251  -2.6826   0.0000   0.0000   0.0000   0.1239
  -7.100  -0.4519   0.05357   0.05076  -0.0563  0.9829  0.0251  -2.6800   0.0000   0.0000   0.0000   0.1201
  -7.000  -0.4455   0.05185   0.04893  -0.0573  0.9809  0.0252  -2.6736   0.0000   0.0000   0.0000   0.1161
  -6.900  -0.4385   0.05013   0.04710  -0.0583  0.9792  0.0252  -2.6632   0.0000   0.0000   0.0000   0.1117
  -6.700  -0.4405   0.04063   0.03715  -0.0615  0.9749  0.0262  -2.9185   0.0000   0.0000   0.0000   0.1051
  -6.600  -0.4335   0.03842   0.03485  -0.0625  0.9739  0.0268  -2.8858   0.0000   0.0000   0.0000   0.1005
  -6.500  -0.4238   0.03702   0.03339  -0.0634  0.9731  0.0273  -2.8296   0.0000   0.0000   0.0000   0.0951
  -6.400  -0.4127   0.03600   0.03234  -0.0642  0.9725  0.0276  -2.7641   0.0000   0.0000   0.0000   0.0890
  -6.300  -0.4013   0.03503   0.03132  -0.0651  0.9719  0.0280  -2.7007   0.0000   0.0000   0.0000   0.0824
  -6.200  -0.3949   0.03423   0.03048  -0.0647  0.9699  0.0284  -2.6557   0.0000   0.0000   0.0000   0.0807
  -6.100  -0.3910   0.03352   0.02972  -0.0638  0.9668  0.0287  -2.6204   0.0000   0.0000   0.0000   0.0816
  -6.000  -0.3835   0.03269   0.02883  -0.0635  0.9645  0.0291  -2.5790   0.0000   0.0000   0.0000   0.0791
  -5.700  -0.3618   0.02315   0.01804  -0.0607  0.9582  0.0175  -3.2778   0.0000   0.0000   0.0000   0.0762
  -5.600  -0.3489   0.02256   0.01747  -0.0611  0.9574  0.0163  -3.2216   0.0000   0.0000   0.0000   0.0690
  -5.500  -0.3394   0.02060   0.01529  -0.0611  0.9563  0.0155  -3.2818   0.0000   0.0000   0.0000   0.0640
  -5.400  -0.3279   0.01930   0.01381  -0.0612  0.9554  0.0150  -3.2982   0.0000   0.0000   0.0000   0.0572
  -5.300  -0.3157   0.01820   0.01256  -0.0614  0.9547  0.0146  -3.3027   0.0000   0.0000   0.0000   0.0492
  -5.200  -0.3031   0.01725   0.01147  -0.0617  0.9541  0.0143  -3.2963   0.0000   0.0000   0.0000   0.0402
  -5.100  -0.2902   0.01641   0.01051  -0.0620  0.9535  0.0140  -3.2796   0.0000   0.0000   0.0000   0.0300
  -5.000  -0.2770   0.01571   0.00971  -0.0623  0.9529  0.0139  -3.2498   0.0000   0.0000   0.0000   0.0183
  -4.900  -0.2635   0.01511   0.00903  -0.0628  0.9524  0.0138  -3.2091   0.0000   0.0000   0.0000   0.0049
  -4.800  -0.2498   0.01458   0.00844  -0.0633  0.9519  0.0138  -3.1591   0.0000   0.0000   0.0000  -0.0102
  -4.700  -0.2361   0.01411   0.00792  -0.0638  0.9514  0.0139  -3.1036   0.0000   0.0000   0.0000  -0.0275
  -4.600  -0.2222   0.01369   0.00745  -0.0644  0.9509  0.0141  -3.0445   0.0000   0.0000   0.0000  -0.0471
  -4.500  -0.2085   0.01330   0.00703  -0.0649  0.9503  0.0143  -2.9835   0.0000   0.0000   0.0000  -0.0690
  -4.400  -0.1948   0.01296   0.00665  -0.0655  0.9497  0.0146  -2.9221   0.0000   0.0000   0.0000  -0.0938
  -4.300  -0.1812   0.01265   0.00630  -0.0660  0.9490  0.0151  -2.8613   0.0000   0.0000   0.0000  -0.1223
  -4.200  -0.1788   0.01249   0.00612  -0.0641  0.9452  0.0155  -2.8293   0.0000   0.0000   0.0000  -0.1166
  -4.100  -0.1704   0.01228   0.00588  -0.0635  0.9427  0.0160  -2.7824   0.0000   0.0000   0.0000  -0.1307
  -4.000  -0.1597   0.01209   0.00567  -0.0634  0.9408  0.0167  -2.7254   0.0000   0.0000   0.0000  -0.1552
  -3.900  -0.1500   0.01156   0.00510  -0.0630  0.9389  0.0201  -2.7395   0.0000   0.0000   0.0000  -0.1787
  -3.800  -0.1379   0.01137   0.00492  -0.0632  0.9375  0.0242  -2.6837   0.0000   0.0000   0.0000  -0.2172
  -3.700  -0.1263   0.01102   0.00463  -0.0633  0.9361  0.0342  -2.6432   0.0000   0.0000   0.0000  -0.2604
  -3.600  -0.1138   0.01081   0.00444  -0.0635  0.9348  0.0443  -2.5607   0.0000   0.0000   0.0000  -0.3186
  -3.500  -0.1007   0.01066   0.00431  -0.0640  0.9337  0.0526  -2.4590   0.0000   0.0000   0.0000  -0.3961
  -3.400  -0.0876   0.01051   0.00419  -0.0644  0.9326  0.0615  -2.3533   0.0000   0.0000   0.0000  -0.4979
  -3.300  -0.0744   0.01035   0.00409  -0.0649  0.9316  0.0721  -2.2444   0.0000   0.0000   0.0000  -0.6358
  -3.200  -0.0611   0.01021   0.00397  -0.0653  0.9305  0.0827  -2.1379   0.0000   0.0000   0.0000  -0.8355
  -3.100  -0.0481   0.01003   0.00385  -0.0658  0.9295  0.0959  -2.0338   0.0000   0.0000   0.0000  -1.1366
  -3.000  -0.0354   0.00983   0.00372  -0.0662  0.9284  0.1144  -1.9330   0.0000   0.0000   0.0000  -1.6466
  -2.900  -0.0229   0.00962   0.00361  -0.0665  0.9272  0.1413  -1.8342   0.0000   0.0000   0.0000  -2.6873
  -2.800  -0.0112   0.00933   0.00351  -0.0668  0.9258  0.1885  -1.7394   0.0000   0.0000   0.0000  -5.7687
  -2.700  -0.0052   0.00904   0.00344  -0.0659  0.9230  0.2465  -1.6690   0.0000   0.0000   0.0000  -12.4993
  -2.600   0.0008   0.00866   0.00335  -0.0651  0.9199  0.3264  -1.5989   0.0000   0.0000   0.0000  79.1343
  -2.500   0.0075   0.00820   0.00326  -0.0644  0.9172  0.4254  -1.5269   0.0000   0.0000   0.0000   8.9513
  -2.400   0.0145   0.00775   0.00319  -0.0637  0.9146  0.5313  -1.4533   0.0000   0.0000   0.0000   4.6855
  -2.300   0.0232   0.00746   0.00318  -0.0632  0.9123  0.6092  -1.3730   0.0000   0.0000   0.0000   3.0055
  -2.200   0.0336   0.00732   0.00315  -0.0629  0.9104  0.6561  -1.2838   0.0000   0.0000   0.0000   2.1373
  -2.100   0.0450   0.00722   0.00312  -0.0628  0.9086  0.6841  -1.1960   0.0000   0.0000   0.0000   1.6582
  -2.000   0.0569   0.00716   0.00308  -0.0628  0.9069  0.7037  -1.1076   0.0000   0.0000   0.0000   1.3629
  -1.900   0.0687   0.00710   0.00305  -0.0627  0.9052  0.7178  -1.0213   0.0000   0.0000   0.0000   1.1710
  -1.800   0.0810   0.00708   0.00301  -0.0629  0.9034  0.7299  -0.9346   0.0000   0.0000   0.0000   1.0317
  -1.700   0.0930   0.00705   0.00300  -0.0629  0.9015  0.7402  -0.8509   0.0000   0.0000   0.0000   0.9308
  -1.600   0.1017   0.00704   0.00299  -0.0623  0.8988  0.7492  -0.7803   0.0000   0.0000   0.0000   0.8660
  -1.500   0.1114   0.00702   0.00297  -0.0619  0.8959  0.7568  -0.7079   0.0000   0.0000   0.0000   0.8086
  -1.400   0.1215   0.00698   0.00296  -0.0615  0.8931  0.7646  -0.6457   0.0000   0.0000   0.0000   0.7589
  -1.300   0.1322   0.00696   0.00293  -0.0613  0.8904  0.7735  -0.5883   0.0000   0.0000   0.0000   0.7156
  -1.200   0.1433   0.00692   0.00289  -0.0611  0.8878  0.7816  -0.5308   0.0000   0.0000   0.0000   0.6782
  -1.100   0.1543   0.00688   0.00286  -0.0609  0.8853  0.7894  -0.4756   0.0000   0.0000   0.0000   0.6459
  -1.000   0.1657   0.00685   0.00282  -0.0608  0.8829  0.7977  -0.4334   0.0000   0.0000   0.0000   0.6178
  -0.900   0.1773   0.00683   0.00278  -0.0607  0.8806  0.8050  -0.4024   0.0000   0.0000   0.0000   0.5931
  -0.800   0.1890   0.00681   0.00277  -0.0606  0.8782  0.8113  -0.4063   0.0000   0.0000   0.0000   0.5713
  -0.700   0.1986   0.00680   0.00277  -0.0602  0.8752  0.8179  -0.4150   0.0000   0.0000   0.0000   0.5533
  -0.600   0.2080   0.00680   0.00276  -0.0597  0.8719  0.8254  -0.4237   0.0000   0.0000   0.0000   0.5371
  -0.500   0.2174   0.00677   0.00276  -0.0591  0.8685  0.8335  -0.4337   0.0000   0.0000   0.0000   0.5218
  -0.400   0.2270   0.00675   0.00276  -0.0586  0.8652  0.8430  -0.4443   0.0000   0.0000   0.0000   0.5077
  -0.200   0.2472   0.00669   0.00272  -0.0576  0.8589  0.8594  -0.4664   0.0000   0.0000   0.0000   0.4826
  -0.100   0.2581   0.00668   0.00270  -0.0573  0.8560  0.8661  -0.4781   0.0000   0.0000   0.0000   0.4715
   0.000   0.2689   0.00669   0.00269  -0.0571  0.8529  0.8722  -0.4908   0.0000   0.0000   0.0000   0.4616
   0.100   0.2779   0.00667   0.00268  -0.0566  0.8492  0.8776  -0.5023   0.0000   0.0000   0.0000   0.4526
   0.200   0.2873   0.00664   0.00267  -0.0560  0.8453  0.8825  -0.5142   0.0000   0.0000   0.0000   0.4439
   0.300   0.2972   0.00661   0.00265  -0.0556  0.8413  0.8872  -0.5268   0.0000   0.0000   0.0000   0.4359
   0.400   0.3075   0.00659   0.00262  -0.0553  0.8376  0.8916  -0.5409   0.0000   0.0000   0.0000   0.4285
   0.500   0.3185   0.00657   0.00257  -0.0551  0.8338  0.8958  -0.5555   0.0000   0.0000   0.0000   0.4216
   0.600   0.3300   0.00657   0.00253  -0.0551  0.8300  0.8994  -0.5717   0.0000   0.0000   0.0000   0.4154
   0.700   0.3397   0.00654   0.00252  -0.0547  0.8256  0.9031  -0.5874   0.0000   0.0000   0.0000   0.4093
   0.800   0.3495   0.00651   0.00250  -0.0543  0.8207  0.9068  -0.6033   0.0000   0.0000   0.0000   0.4036
   0.900   0.3597   0.00649   0.00248  -0.0539  0.8159  0.9106  -0.6195   0.0000   0.0000   0.0000   0.3982
   1.000   0.3705   0.00647   0.00245  -0.0537  0.8114  0.9145  -0.6363   0.0000   0.0000   0.0000   0.3932
   1.100   0.3815   0.00646   0.00241  -0.0536  0.8072  0.9184  -0.6535   0.0000   0.0000   0.0000   0.3885
   1.200   0.3916   0.00646   0.00240  -0.0533  0.8025  0.9227  -0.6698   0.0000   0.0000   0.0000   0.3841
   1.300   0.4018   0.00644   0.00240  -0.0530  0.7969  0.9266  -0.6863   0.0000   0.0000   0.0000   0.3799
   1.400   0.4130   0.00642   0.00238  -0.0529  0.7911  0.9302  -0.7038   0.0000   0.0000   0.0000   0.3760
   1.500   0.4247   0.00642   0.00236  -0.0529  0.7855  0.9338  -0.7218   0.0000   0.0000   0.0000   0.3723
   1.600   0.4363   0.00642   0.00235  -0.0529  0.7801  0.9377  -0.7411   0.0000   0.0000   0.0000   0.3689
   1.700   0.4467   0.00642   0.00235  -0.0527  0.7731  0.9425  -0.7608   0.0000   0.0000   0.0000   0.3655
   1.800   0.4569   0.00642   0.00233  -0.0524  0.7654  0.9473  -0.7805   0.0000   0.0000   0.0000   0.3621
   1.900   0.4702   0.00643   0.00230  -0.0527  0.7578  0.9503  -0.8033   0.0000   0.0000   0.0000   0.3596
   2.000   0.4836   0.00644   0.00231  -0.0532  0.7491  0.9533  -0.8299   0.0000   0.0000   0.0000   0.3573
   2.100   0.4972   0.00646   0.00229  -0.0536  0.7398  0.9562  -0.8574   0.0000   0.0000   0.0000   0.3552
   2.200   0.5107   0.00650   0.00229  -0.0541  0.7310  0.9593  -0.8850   0.0000   0.0000   0.0000   0.3531
   2.300   0.5238   0.00652   0.00230  -0.0545  0.7215  0.9628  -0.9122   0.0000   0.0000   0.0000   0.3511
   2.400   0.5362   0.00657   0.00230  -0.0547  0.7123  0.9667  -0.9389   0.0000   0.0000   0.0000   0.3491
   2.600   0.5630   0.00666   0.00233  -0.0557  0.6913  0.9729  -0.9950   0.0000   0.0000   0.0000   0.3458
   2.700   0.5780   0.00672   0.00234  -0.0565  0.6789  0.9749  -1.0251   0.0000   0.0000   0.0000   0.3445
   2.800   0.5924   0.00680   0.00235  -0.0572  0.6639  0.9770  -1.0600   0.0000   0.0000   0.0000   0.3433
   2.900   0.6067   0.00688   0.00239  -0.0579  0.6472  0.9793  -1.0952   0.0000   0.0000   0.0000   0.3421
   3.000   0.6205   0.00698   0.00242  -0.0585  0.6301  0.9820  -1.1299   0.0000   0.0000   0.0000   0.3409
   3.100   0.6337   0.00710   0.00245  -0.0590  0.6121  0.9851  -1.1640   0.0000   0.0000   0.0000   0.3396
   3.200   0.6464   0.00722   0.00249  -0.0594  0.5928  0.9884  -1.1977   0.0000   0.0000   0.0000   0.3383
   3.300   0.6595   0.00736   0.00253  -0.0599  0.5716  0.9912  -1.2322   0.0000   0.0000   0.0000   0.3372
   3.400   0.6738   0.00751   0.00258  -0.0607  0.5482  0.9938  -1.2685   0.0000   0.0000   0.0000   0.3363
   3.500   0.6878   0.00767   0.00263  -0.0615  0.5249  0.9966  -1.3047   0.0000   0.0000   0.0000   0.3355
   3.600   0.7019   0.00783   0.00269  -0.0623  0.5030  0.9991  -1.3413   0.0000   0.0000   0.0000   0.3348
   3.700   0.7100   0.00796   0.00274  -0.0618  0.4851  1.0000  -1.3690   0.0000   0.0000   0.0000   0.3330
   3.800   0.7133   0.00808   0.00279  -0.0603  0.4692  1.0000  -1.3897   0.0000   0.0000   0.0000   0.3305
   3.900   0.7180   0.00821   0.00284  -0.0591  0.4518  1.0000  -1.4126   0.0000   0.0000   0.0000   0.3282
   4.000   0.7233   0.00834   0.00289  -0.0581  0.4346  1.0000  -1.4365   0.0000   0.0000   0.0000   0.3260
   4.100   0.7289   0.00850   0.00296  -0.0570  0.4169  1.0000  -1.4609   0.0000   0.0000   0.0000   0.3239
   4.200   0.7346   0.00868   0.00304  -0.0560  0.3986  1.0000  -1.4857   0.0000   0.0000   0.0000   0.3218
   4.300   0.7413   0.00883   0.00311  -0.0552  0.3807  1.0000  -1.5121   0.0000   0.0000   0.0000   0.3199
   4.400   0.7481   0.00899   0.00322  -0.0544  0.3640  1.0000  -1.5387   0.0000   0.0000   0.0000   0.3181
   4.500   0.7548   0.00916   0.00331  -0.0536  0.3482  1.0000  -1.5653   0.0000   0.0000   0.0000   0.3163
   4.600   0.7623   0.00931   0.00340  -0.0529  0.3329  1.0000  -1.5933   0.0000   0.0000   0.0000   0.3146
   4.700   0.7698   0.00946   0.00349  -0.0523  0.3190  1.0000  -1.6246   0.0000   0.0000   0.0000   0.3130
   4.800   0.7772   0.00963   0.00358  -0.0516  0.3044  1.0000  -1.6634   0.0000   0.0000   0.0000   0.3114
   4.900   0.7853   0.00977   0.00368  -0.0511  0.2913  1.0000  -1.7042   0.0000   0.0000   0.0000   0.3099
   5.000   0.7929   0.00995   0.00378  -0.0504  0.2778  1.0000  -1.7440   0.0000   0.0000   0.0000   0.3084
   5.100   0.8012   0.01009   0.00387  -0.0499  0.2653  1.0000  -1.7858   0.0000   0.0000   0.0000   0.3070
   5.200   0.8090   0.01027   0.00398  -0.0494  0.2532  1.0000  -1.8267   0.0000   0.0000   0.0000   0.3056
   5.300   0.8175   0.01041   0.00408  -0.0489  0.2417  1.0000  -1.8694   0.0000   0.0000   0.0000   0.3043
   5.400   0.8254   0.01059   0.00420  -0.0483  0.2303  1.0000  -1.9109   0.0000   0.0000   0.0000   0.3030
   5.500   0.8341   0.01072   0.00430  -0.0479  0.2202  1.0000  -1.9593   0.0000   0.0000   0.0000   0.3018
   5.600   0.8419   0.01092   0.00443  -0.0474  0.2093  1.0000  -2.0079   0.0000   0.0000   0.0000   0.3005
   5.700   0.8508   0.01105   0.00454  -0.0470  0.2007  1.0000  -2.0595   0.0000   0.0000   0.0000   0.2994
   5.900   0.8674   0.01138   0.00481  -0.0460  0.1826  1.0000  -2.1608   0.0000   0.0000   0.0000   0.2970
   6.000   0.8762   0.01152   0.00492  -0.0456  0.1751  1.0000  -2.2135   0.0000   0.0000   0.0000   0.2959
   6.100   0.8843   0.01171   0.00506  -0.0452  0.1667  1.0000  -2.2646   0.0000   0.0000   0.0000   0.2948
   6.200   0.8928   0.01187   0.00519  -0.0447  0.1592  1.0000  -2.3169   0.0000   0.0000   0.0000   0.2937
   6.300   0.9016   0.01200   0.00531  -0.0443  0.1526  1.0000  -2.3708   0.0000   0.0000   0.0000   0.2927
   6.400   0.9097   0.01219   0.00545  -0.0438  0.1449  1.0000  -2.4229   0.0000   0.0000   0.0000   0.2916
   6.500   0.9179   0.01238   0.00561  -0.0434  0.1377  1.0000  -2.4753   0.0000   0.0000   0.0000   0.2905
   6.600   0.9269   0.01250   0.00573  -0.0430  0.1327  1.0000  -2.5311   0.0000   0.0000   0.0000   0.2896
   6.700   0.9354   0.01267   0.00586  -0.0426  0.1267  1.0000  -2.5854   0.0000   0.0000   0.0000   0.2886
   6.800   0.9430   0.01289   0.00603  -0.0420  0.1197  1.0000  -2.6374   0.0000   0.0000   0.0000   0.2875
   6.900   0.9516   0.01305   0.00619  -0.0416  0.1151  1.0000  -2.6921   0.0000   0.0000   0.0000   0.2866
   7.000   0.9606   0.01317   0.00632  -0.0413  0.1116  1.0000  -2.7491   0.0000   0.0000   0.0000   0.2857
   7.100   0.9692   0.01332   0.00647  -0.0408  0.1075  1.0000  -2.8049   0.0000   0.0000   0.0000   0.2848
   7.200   0.9772   0.01352   0.00663  -0.0403  0.1029  1.0000  -2.8594   0.0000   0.0000   0.0000   0.2838
   7.300   0.9842   0.01379   0.00686  -0.0397  0.0970  1.0000  -2.9096   0.0000   0.0000   0.0000   0.2827
   7.400   0.9927   0.01395   0.00706  -0.0392  0.0941  1.0000  -2.9727   0.0000   0.0000   0.0000   0.2818
   7.500   1.0019   0.01405   0.00719  -0.0389  0.0920  1.0000  -3.0414   0.0000   0.0000   0.0000   0.2810
   7.600   1.0107   0.01418   0.00733  -0.0386  0.0892  1.0000  -3.1089   0.0000   0.0000   0.0000   0.2802
   7.700   1.0191   0.01434   0.00748  -0.0381  0.0861  1.0000  -3.1754   0.0000   0.0000   0.0000   0.2794
   7.800   1.0270   0.01454   0.00765  -0.0376  0.0829  1.0000  -3.2405   0.0000   0.0000   0.0000   0.2785
   7.900   1.0342   0.01479   0.00788  -0.0370  0.0792  1.0000  -3.3020   0.0000   0.0000   0.0000   0.2775
   8.000   1.0397   0.01516   0.00825  -0.0361  0.0750  1.0000  -3.3543   0.0000   0.0000   0.0000   0.2763
   8.100   1.0486   0.01528   0.00839  -0.0357  0.0740  1.0000  -3.4242   0.0000   0.0000   0.0000   0.2755
   8.200   1.0575   0.01539   0.00853  -0.0353  0.0729  1.0000  -3.4947   0.0000   0.0000   0.0000   0.2748
   8.300   1.0661   0.01552   0.00869  -0.0349  0.0714  1.0000  -3.5644   0.0000   0.0000   0.0000   0.2740
   8.400   1.0745   0.01567   0.00886  -0.0345  0.0697  1.0000  -3.6336   0.0000   0.0000   0.0000   0.2732
   8.500   1.0826   0.01583   0.00904  -0.0340  0.0678  1.0000  -3.7022   0.0000   0.0000   0.0000   0.2724
   8.600   1.0904   0.01601   0.00922  -0.0335  0.0658  1.0000  -3.7699   0.0000   0.0000   0.0000   0.2716
   8.700   1.0977   0.01623   0.00943  -0.0329  0.0637  1.0000  -3.8364   0.0000   0.0000   0.0000   0.2707
   8.800   1.1043   0.01650   0.00969  -0.0322  0.0612  1.0000  -3.9071   0.0000   0.0000   0.0000   0.2698
   8.900   1.1089   0.01690   0.01010  -0.0312  0.0581  1.0000  -3.9659   0.0000   0.0000   0.0000   0.2686
   9.000   1.1132   0.01732   0.01055  -0.0301  0.0559  1.0000  -4.0226   0.0000   0.0000   0.0000   0.2673
   9.100   1.1218   0.01739   0.01068  -0.0297  0.0552  1.0000  -4.1068   0.0000   0.0000   0.0000   0.2666
   9.200   1.1301   0.01749   0.01081  -0.0292  0.0543  1.0000  -4.1896   0.0000   0.0000   0.0000   0.2659
   9.300   1.1379   0.01762   0.01096  -0.0287  0.0529  1.0000  -4.2703   0.0000   0.0000   0.0000   0.2651
   9.400   1.1453   0.01777   0.01113  -0.0281  0.0513  1.0000  -4.3496   0.0000   0.0000   0.0000   0.2643
   9.500   1.1524   0.01793   0.01131  -0.0275  0.0496  1.0000  -4.4282   0.0000   0.0000   0.0000   0.2635
   9.600   1.1589   0.01813   0.01151  -0.0268  0.0478  1.0000  -4.5042   0.0000   0.0000   0.0000   0.2626
   9.700   1.1647   0.01838   0.01174  -0.0259  0.0461  1.0000  -4.5762   0.0000   0.0000   0.0000   0.2617
   9.800   1.1691   0.01872   0.01208  -0.0249  0.0441  1.0000  -4.6390   0.0000   0.0000   0.0000   0.2605
   9.900   1.1708   0.01925   0.01264  -0.0234  0.0418  1.0000  -4.6825   0.0000   0.0000   0.0000   0.2591
  10.000   1.1699   0.02004   0.01348  -0.0215  0.0398  1.0000  -4.7070   0.0000   0.0000   0.0000   0.2574
  10.100   1.1775   0.02017   0.01364  -0.0210  0.0395  1.0000  -4.8106   0.0000   0.0000   0.0000   0.2567
  10.200   1.1846   0.02032   0.01383  -0.0204  0.0390  1.0000  -4.9348   0.0000   0.0000   0.0000   0.2560
  10.300   1.1914   0.02051   0.01405  -0.0198  0.0384  1.0000  -5.0565   0.0000   0.0000   0.0000   0.2552
  10.400   1.1977   0.02073   0.01431  -0.0191  0.0377  1.0000  -5.1758   0.0000   0.0000   0.0000   0.2544
  10.500   1.2038   0.02098   0.01459  -0.0184  0.0370  1.0000  -5.2932   0.0000   0.0000   0.0000   0.2535
  10.600   1.2096   0.02124   0.01488  -0.0176  0.0362  1.0000  -5.4096   0.0000   0.0000   0.0000   0.2527
  10.700   1.2153   0.02151   0.01518  -0.0169  0.0354  1.0000  -5.5266   0.0000   0.0000   0.0000   0.2519
  10.800   1.2210   0.02177   0.01547  -0.0161  0.0346  1.0000  -5.6450   0.0000   0.0000   0.0000   0.2510
  10.900   1.2266   0.02204   0.01576  -0.0154  0.0338  1.0000  -5.7643   0.0000   0.0000   0.0000   0.2502
  11.000   1.2320   0.02231   0.01605  -0.0146  0.0330  1.0000  -5.8842   0.0000   0.0000   0.0000   0.2494
  11.100   1.2371   0.02260   0.01636  -0.0139  0.0323  1.0000  -6.0020   0.0000   0.0000   0.0000   0.2486
  11.200   1.2417   0.02293   0.01670  -0.0130  0.0315  1.0000  -6.1160   0.0000   0.0000   0.0000   0.2477
  11.300   1.2455   0.02333   0.01711  -0.0121  0.0307  1.0000  -6.2229   0.0000   0.0000   0.0000   0.2468
  11.400   1.2482   0.02383   0.01764  -0.0111  0.0299  1.0000  -6.3181   0.0000   0.0000   0.0000   0.2458
  11.500   1.2494   0.02445   0.01834  -0.0099  0.0291  1.0000  -6.4014   0.0000   0.0000   0.0000   0.2447
  11.600   1.2495   0.02523   0.01918  -0.0085  0.0284  1.0000  -6.4688   0.0000   0.0000   0.0000   0.2435
  11.700   1.2484   0.02624   0.02027  -0.0071  0.0277  1.0000  -6.5192   0.0000   0.0000   0.0000   0.2422
  11.800   1.2487   0.02716   0.02128  -0.0059  0.0272  1.0000  -6.5834   0.0000   0.0000   0.0000   0.2411
  11.900   1.2537   0.02747   0.02163  -0.0053  0.0270  1.0000  -6.7040   0.0000   0.0000   0.0000   0.2404
  12.000   1.2584   0.02781   0.02201  -0.0046  0.0269  1.0000  -6.8232   0.0000   0.0000   0.0000   0.2397
  12.100   1.2630   0.02817   0.02241  -0.0039  0.0267  1.0000  -6.9411   0.0000   0.0000   0.0000   0.2390
  12.200   1.2673   0.02855   0.02284  -0.0032  0.0264  1.0000  -7.0574   0.0000   0.0000   0.0000   0.2383
  12.300   1.2713   0.02897   0.02331  -0.0025  0.0262  1.0000  -7.1707   0.0000   0.0000   0.0000   0.2375
  12.400   1.2750   0.02942   0.02380  -0.0018  0.0259  1.0000  -7.2816   0.0000   0.0000   0.0000   0.2368
  12.500   1.2785   0.02988   0.02431  -0.0011  0.0256  1.0000  -7.3913   0.0000   0.0000   0.0000   0.2361
  12.600   1.2820   0.03035   0.02483  -0.0004  0.0253  1.0000  -7.5010   0.0000   0.0000   0.0000   0.2354
  12.700   1.2852   0.03082   0.02536   0.0003  0.0250  1.0000  -7.6102   0.0000   0.0000   0.0000   0.2346
  12.800   1.2883   0.03131   0.02589   0.0010  0.0246  1.0000  -7.7185   0.0000   0.0000   0.0000   0.2339
  12.900   1.2913   0.03180   0.02642   0.0017  0.0242  1.0000  -7.8275   0.0000   0.0000   0.0000   0.2332
  13.000   1.2943   0.03229   0.02695   0.0023  0.0238  1.0000  -7.9380   0.0000   0.0000   0.0000   0.2326
  13.100   1.2972   0.03278   0.02748   0.0030  0.0234  1.0000  -8.0496   0.0000   0.0000   0.0000   0.2319
  13.200   1.3001   0.03325   0.02798   0.0036  0.0230  1.0000  -8.1632   0.0000   0.0000   0.0000   0.2313
  13.300   1.3032   0.03370   0.02846   0.0041  0.0226  1.0000  -8.2806   0.0000   0.0000   0.0000   0.2307
  13.400   1.3064   0.03413   0.02891   0.0046  0.0222  1.0000  -8.4020   0.0000   0.0000   0.0000   0.2301
  13.500   1.3095   0.03457   0.02937   0.0051  0.0218  1.0000  -8.5231   0.0000   0.0000   0.0000   0.2296
  13.600   1.3123   0.03504   0.02985   0.0056  0.0214  1.0000  -8.6433   0.0000   0.0000   0.0000   0.2291
  13.700   1.3147   0.03557   0.03039   0.0060  0.0209  1.0000  -8.7585   0.0000   0.0000   0.0000   0.2285
  13.800   1.3159   0.03622   0.03106   0.0065  0.0205  1.0000  -8.8603   0.0000   0.0000   0.0000   0.2280
  13.900   1.3158   0.03703   0.03190   0.0071  0.0201  1.0000  -8.9450   0.0000   0.0000   0.0000   0.2273
  14.000   1.3144   0.03801   0.03292   0.0077  0.0196  1.0000  -9.0120   0.0000   0.0000   0.0000   0.2267
  14.100   1.3113   0.03920   0.03416   0.0083  0.0192  1.0000  -9.0567   0.0000   0.0000   0.0000   0.2260
  14.200   1.3067   0.04061   0.03564   0.0090  0.0188  1.0000  -9.0802   0.0000   0.0000   0.0000   0.2253
  14.300   1.3005   0.04222   0.03735   0.0096  0.0185  1.0000  -9.0827   0.0000   0.0000   0.0000   0.2246
  14.400   1.2931   0.04403   0.03928   0.0101  0.0182  1.0000  -9.0668   0.0000   0.0000   0.0000   0.2240
  14.500   1.2876   0.04565   0.04098   0.0105  0.0180  1.0000  -9.0758   0.0000   0.0000   0.0000   0.2235
  14.600   1.2918   0.04608   0.04143   0.0105  0.0179  1.0000  -9.2140   0.0000   0.0000   0.0000   0.2233
  14.700   1.2949   0.04666   0.04205   0.0106  0.0178  1.0000  -9.3379   0.0000   0.0000   0.0000   0.2230
  14.800   1.2971   0.04738   0.04280   0.0106  0.0176  1.0000  -9.4496   0.0000   0.0000   0.0000   0.2228
  14.900   1.2988   0.04817   0.04364   0.0107  0.0174  1.0000  -9.5550   0.0000   0.0000   0.0000   0.2226
  15.000   1.2997   0.04908   0.04460   0.0107  0.0173  1.0000  -9.6503   0.0000   0.0000   0.0000   0.2224


