xflr5 v6.61

 Calculated polar for: SG6041

 1 1 Reynolds number fixed          Mach number fixed         

 xtrf =   1.000 (top)        1.000 (bottom)
 Mach =   0.000     Re =     0.175 e 6     Ncrit =   9.000

  alpha     CL        CD       CDp       Cm    Top Xtr Bot Xtr   Cpmin    Chinge    XCp    
 ------- -------- --------- --------- -------- ------- ------- -------- --------- ---------
 -10.000  -0.4102   0.10620   0.10222  -0.0332  1.0000  0.0482  -1.6646   0.0000   0.0000   0.0000   0.1608
  -9.900  -0.4103   0.10489   0.10092  -0.0337  1.0000  0.0488  -1.6711   0.0000   0.0000   0.0000   0.1599
  -9.800  -0.4106   0.10357   0.09962  -0.0341  1.0000  0.0494  -1.6798   0.0000   0.0000   0.0000   0.1589
  -9.700  -0.4112   0.10224   0.09831  -0.0347  1.0000  0.0499  -1.6911   0.0000   0.0000   0.0000   0.1579
  -9.600  -0.4120   0.10092   0.09701  -0.0353  1.0000  0.0505  -1.7055   0.0000   0.0000   0.0000   0.1567
  -9.500  -0.4132   0.09961   0.09572  -0.0359  1.0000  0.0512  -1.7242   0.0000   0.0000   0.0000   0.1554
  -9.400  -0.4148   0.09833   0.09446  -0.0368  1.0000  0.0518  -1.7480   0.0000   0.0000   0.0000   0.1539
  -9.300  -0.4169   0.09709   0.09325  -0.0377  1.0000  0.0524  -1.7777   0.0000   0.0000   0.0000   0.1522
  -9.200  -0.4193   0.09593   0.09211  -0.0389  1.0000  0.0530  -1.8111   0.0000   0.0000   0.0000   0.1502
  -9.100  -0.4224   0.09476   0.09098  -0.0400  1.0000  0.0534  -1.8469   0.0000   0.0000   0.0000   0.1483
  -9.000  -0.4254   0.09361   0.08985  -0.0411  1.0000  0.0537  -1.8777   0.0000   0.0000   0.0000   0.1467
  -8.900  -0.4280   0.09244   0.08870  -0.0419  1.0000  0.0540  -1.9017   0.0000   0.0000   0.0000   0.1454
  -8.800  -0.4313   0.09117   0.08747  -0.0428  1.0000  0.0541  -1.9270   0.0000   0.0000   0.0000   0.1444
  -8.700  -0.4355   0.08984   0.08616  -0.0436  1.0000  0.0542  -1.9549   0.0000   0.0000   0.0000   0.1437
  -8.600  -0.4409   0.08846   0.08481  -0.0443  1.0000  0.0543  -1.9861   0.0000   0.0000   0.0000   0.1433
  -8.500  -0.4475   0.08719   0.08356  -0.0448  1.0000  0.0543  -2.0176   0.0000   0.0000   0.0000   0.1440
  -8.400  -0.4551   0.08618   0.08257  -0.0446  1.0000  0.0543  -2.0456   0.0000   0.0000   0.0000   0.1463
  -8.300  -0.4635   0.08536   0.08176  -0.0438  1.0000  0.0543  -2.0711   0.0000   0.0000   0.0000   0.1499
  -8.200  -0.4720   0.08461   0.08102  -0.0428  1.0000  0.0544  -2.0944   0.0000   0.0000   0.0000   0.1541
  -8.100  -0.4791   0.08375   0.08016  -0.0419  1.0000  0.0544  -2.1162   0.0000   0.0000   0.0000   0.1574
  -8.000  -0.4856   0.08284   0.07925  -0.0411  1.0000  0.0544  -2.1365   0.0000   0.0000   0.0000   0.1603
  -7.900  -0.4919   0.08195   0.07835  -0.0403  1.0000  0.0545  -2.1554   0.0000   0.0000   0.0000   0.1632
  -7.800  -0.4979   0.08107   0.07746  -0.0394  1.0000  0.0545  -2.1730   0.0000   0.0000   0.0000   0.1660
  -7.700  -0.5036   0.08017   0.07655  -0.0386  1.0000  0.0546  -2.1891   0.0000   0.0000   0.0000   0.1687
  -7.600  -0.5088   0.07926   0.07563  -0.0377  1.0000  0.0546  -2.2037   0.0000   0.0000   0.0000   0.1713
  -7.500  -0.5136   0.07833   0.07467  -0.0368  1.0000  0.0546  -2.2168   0.0000   0.0000   0.0000   0.1738
  -7.400  -0.5179   0.07738   0.07369  -0.0360  1.0000  0.0547  -2.2283   0.0000   0.0000   0.0000   0.1761
  -7.300  -0.5218   0.07639   0.07268  -0.0352  1.0000  0.0547  -2.2382   0.0000   0.0000   0.0000   0.1783
  -7.200  -0.5252   0.07538   0.07163  -0.0343  1.0000  0.0547  -2.2464   0.0000   0.0000   0.0000   0.1804
  -7.100  -0.5282   0.07435   0.07056  -0.0335  1.0000  0.0548  -2.2531   0.0000   0.0000   0.0000   0.1823
  -7.000  -0.5306   0.07329   0.06945  -0.0328  1.0000  0.0548  -2.2582   0.0000   0.0000   0.0000   0.1842
  -6.900  -0.5327   0.07220   0.06832  -0.0320  1.0000  0.0548  -2.2617   0.0000   0.0000   0.0000   0.1859
  -6.800  -0.5505   0.06609   0.06221  -0.0323  1.0000  0.0559  -2.4022   0.0000   0.0000   0.0000   0.1874
  -6.700  -0.5550   0.06342   0.05954  -0.0318  1.0000  0.0565  -2.4178   0.0000   0.0000   0.0000   0.1887
  -6.600  -0.5558   0.06166   0.05778  -0.0312  1.0000  0.0571  -2.4013   0.0000   0.0000   0.0000   0.1899
  -6.500  -0.5543   0.06032   0.05646  -0.0306  1.0000  0.0575  -2.3647   0.0000   0.0000   0.0000   0.1911
  -6.400  -0.5527   0.05913   0.05528  -0.0299  1.0000  0.0580  -2.3290   0.0000   0.0000   0.0000   0.1922
  -6.300  -0.5512   0.05802   0.05417  -0.0292  1.0000  0.0584  -2.2946   0.0000   0.0000   0.0000   0.1934
  -6.200  -0.5496   0.05696   0.05310  -0.0285  1.0000  0.0589  -2.2615   0.0000   0.0000   0.0000   0.1945
  -6.100  -0.5479   0.05591   0.05204  -0.0278  1.0000  0.0595  -2.2362   0.0000   0.0000   0.0000   0.1956
  -6.000  -0.5461   0.05488   0.05098  -0.0272  1.0000  0.0600  -2.2174   0.0000   0.0000   0.0000   0.1967
  -5.900  -0.5439   0.05384   0.04993  -0.0266  1.0000  0.0607  -2.1995   0.0000   0.0000   0.0000   0.1976
  -5.800  -0.5415   0.05282   0.04887  -0.0260  1.0000  0.0613  -2.1820   0.0000   0.0000   0.0000   0.1985
  -5.700  -0.5388   0.05179   0.04780  -0.0255  1.0000  0.0621  -2.1664   0.0000   0.0000   0.0000   0.1994
  -5.600  -0.5359   0.05074   0.04671  -0.0249  1.0000  0.0629  -2.1526   0.0000   0.0000   0.0000   0.2002
  -5.500  -0.5327   0.04968   0.04560  -0.0244  1.0000  0.0638  -2.1405   0.0000   0.0000   0.0000   0.2009
  -5.400  -0.5292   0.04861   0.04447  -0.0240  1.0000  0.0649  -2.1304   0.0000   0.0000   0.0000   0.2015
  -5.300  -0.5253   0.04754   0.04332  -0.0235  1.0000  0.0660  -2.1222   0.0000   0.0000   0.0000   0.2021
  -5.200  -0.5157   0.04622   0.04189  -0.0241  0.9989  0.0678  -2.1122   0.0000   0.0000   0.0000   0.2000
  -5.100  -0.5034   0.04493   0.04044  -0.0251  0.9973  0.0700  -2.1060   0.0000   0.0000   0.0000   0.1968
  -4.700  -0.4536   0.03295   0.02700  -0.0259  0.9920  0.0358  -2.6446   0.0000   0.0000   0.0000   0.1891
  -4.600  -0.4428   0.03079   0.02462  -0.0264  0.9910  0.0342  -2.6807   0.0000   0.0000   0.0000   0.1866
  -4.500  -0.4316   0.02909   0.02270  -0.0265  0.9898  0.0329  -2.7131   0.0000   0.0000   0.0000   0.1846
  -4.400  -0.4208   0.02755   0.02093  -0.0264  0.9884  0.0317  -2.7498   0.0000   0.0000   0.0000   0.1833
  -4.300  -0.4093   0.02615   0.01924  -0.0263  0.9870  0.0307  -2.7871   0.0000   0.0000   0.0000   0.1817
  -4.200  -0.3973   0.02494   0.01780  -0.0263  0.9855  0.0300  -2.8146   0.0000   0.0000   0.0000   0.1798
  -4.100  -0.3850   0.02393   0.01661  -0.0263  0.9840  0.0297  -2.8259   0.0000   0.0000   0.0000   0.1776
  -4.000  -0.3723   0.02310   0.01564  -0.0265  0.9825  0.0297  -2.8202   0.0000   0.0000   0.0000   0.1748
  -3.900  -0.3593   0.02240   0.01483  -0.0267  0.9809  0.0300  -2.8036   0.0000   0.0000   0.0000   0.1715
  -3.800  -0.3460   0.02179   0.01412  -0.0270  0.9794  0.0305  -2.7806   0.0000   0.0000   0.0000   0.1677
  -3.700  -0.3322   0.02124   0.01349  -0.0275  0.9779  0.0313  -2.7542   0.0000   0.0000   0.0000   0.1631
  -3.600  -0.3180   0.02075   0.01294  -0.0280  0.9765  0.0324  -2.7262   0.0000   0.0000   0.0000   0.1577
  -3.500  -0.3034   0.02031   0.01243  -0.0286  0.9751  0.0340  -2.6994   0.0000   0.0000   0.0000   0.1515
  -3.400  -0.2882   0.01995   0.01202  -0.0292  0.9739  0.0359  -2.6708   0.0000   0.0000   0.0000   0.1441
  -3.300  -0.2731   0.01950   0.01151  -0.0299  0.9728  0.0388  -2.6435   0.0000   0.0000   0.0000   0.1359
  -3.200  -0.2585   0.01905   0.01114  -0.0309  0.9717  0.0454  -2.5763   0.0000   0.0000   0.0000   0.1259
  -3.100  -0.2498   0.01889   0.01098  -0.0305  0.9691  0.0504  -2.5272   0.0000   0.0000   0.0000   0.1234
  -3.000  -0.2395   0.01872   0.01075  -0.0302  0.9664  0.0544  -2.4924   0.0000   0.0000   0.0000   0.1194
  -2.900  -0.2303   0.01785   0.00995  -0.0299  0.9642  0.0632  -2.4841   0.0000   0.0000   0.0000   0.1157
  -2.800  -0.2176   0.01778   0.00988  -0.0302  0.9617  0.0741  -2.4127   0.0000   0.0000   0.0000   0.1064
  -2.700  -0.2061   0.01720   0.00934  -0.0304  0.9596  0.0875  -2.3698   0.0000   0.0000   0.0000   0.0978
  -2.600  -0.1925   0.01699   0.00911  -0.0309  0.9576  0.1005  -2.2933   0.0000   0.0000   0.0000   0.0847
  -2.500  -0.1790   0.01669   0.00889  -0.0315  0.9558  0.1190  -2.2063   0.0000   0.0000   0.0000   0.0689
  -2.400  -0.1650   0.01638   0.00870  -0.0322  0.9541  0.1443  -2.1171   0.0000   0.0000   0.0000   0.0494
  -2.300  -0.1520   0.01581   0.00852  -0.0330  0.9526  0.2098  -2.0328   0.0000   0.0000   0.0000   0.0276
  -2.100  -0.1378   0.01409   0.00886  -0.0316  0.9496  0.6762  -1.8897   0.0000   0.0000   0.0000   0.0150
  -2.000  -0.1330   0.01402   0.00892  -0.0300  0.9463  0.7298  -1.8246   0.0000   0.0000   0.0000   0.0192
  -1.900  -0.1285   0.01396   0.00894  -0.0283  0.9425  0.7619  -1.7607   0.0000   0.0000   0.0000   0.0246
  -1.800  -0.1203   0.01394   0.00897  -0.0273  0.9393  0.7894  -1.6815   0.0000   0.0000   0.0000   0.0174
  -1.700  -0.1098   0.01395   0.00899  -0.0268  0.9366  0.8118  -1.5937   0.0000   0.0000   0.0000  -0.0000
  -1.600  -0.0978   0.01396   0.00901  -0.0267  0.9342  0.8312  -1.5005   0.0000   0.0000   0.0000  -0.0288
  -1.500  -0.0848   0.01398   0.00902  -0.0267  0.9321  0.8494  -1.4043   0.0000   0.0000   0.0000  -0.0712
  -1.400  -0.0708   0.01401   0.00906  -0.0268  0.9304  0.8676  -1.3046   0.0000   0.0000   0.0000  -0.1355
  -1.300  -0.0554   0.01405   0.00907  -0.0272  0.9290  0.8853  -1.1989   0.0000   0.0000   0.0000  -0.2489
  -1.200  -0.0392   0.01410   0.00910  -0.0278  0.9276  0.9016  -1.0956   0.0000   0.0000   0.0000  -0.4711
  -1.100  -0.0188   0.01417   0.00915  -0.0293  0.9267  0.9153  -0.9793   0.0000   0.0000   0.0000  -1.3263
  -1.000   0.0022   0.01425   0.00920  -0.0309  0.9260  0.9282  -0.8638   0.0000   0.0000   0.0000  14.3970
  -0.900   0.0273   0.01436   0.00926  -0.0334  0.9256  0.9389  -0.7526   0.0000   0.0000   0.0000   1.4836
  -0.800   0.0415   0.01441   0.00929  -0.0339  0.9222  0.9509  -0.6845   0.0000   0.0000   0.0000   1.0724
  -0.700   0.0941   0.01470   0.00951  -0.0413  0.9264  0.9661  -0.5157   0.0000   0.0000   0.0000   0.6908
  -0.600   0.1323   0.01483   0.00957  -0.0463  0.9273  0.9754  -0.4170   0.0000   0.0000   0.0000   0.6008
  -0.500   0.1622   0.01483   0.00952  -0.0499  0.9272  0.9793  -0.3975   0.0000   0.0000   0.0000   0.5583
  -0.400   0.1880   0.01479   0.00944  -0.0528  0.9266  0.9819  -0.4156   0.0000   0.0000   0.0000   0.5312
  -0.300   0.2126   0.01474   0.00935  -0.0555  0.9259  0.9838  -0.4351   0.0000   0.0000   0.0000   0.5110
  -0.200   0.2264   0.01470   0.00930  -0.0563  0.9221  0.9882  -0.4479   0.0000   0.0000   0.0000   0.4981
  -0.100   0.2434   0.01463   0.00921  -0.0576  0.9187  0.9913  -0.4627   0.0000   0.0000   0.0000   0.4859
   0.000   0.2642   0.01452   0.00908  -0.0596  0.9164  0.9931  -0.4814   0.0000   0.0000   0.0000   0.4748
   0.100   0.2854   0.01440   0.00894  -0.0616  0.9142  0.9948  -0.5008   0.0000   0.0000   0.0000   0.4651
   0.200   0.3071   0.01427   0.00878  -0.0638  0.9123  0.9960  -0.5208   0.0000   0.0000   0.0000   0.4566
   0.300   0.3293   0.01412   0.00862  -0.0660  0.9106  0.9969  -0.5435   0.0000   0.0000   0.0000   0.4492
   0.400   0.3522   0.01395   0.00843  -0.0682  0.9091  0.9975  -0.5670   0.0000   0.0000   0.0000   0.4426
   0.500   0.3755   0.01376   0.00824  -0.0706  0.9077  0.9979  -0.5931   0.0000   0.0000   0.0000   0.4367
   0.600   0.3984   0.01356   0.00803  -0.0728  0.9062  0.9983  -0.6199   0.0000   0.0000   0.0000   0.4314
   0.700   0.4211   0.01334   0.00781  -0.0750  0.9047  0.9987  -0.6467   0.0000   0.0000   0.0000   0.4266
   0.800   0.4435   0.01312   0.00758  -0.0771  0.9031  0.9990  -0.6736   0.0000   0.0000   0.0000   0.4223
   0.900   0.4648   0.01291   0.00737  -0.0790  0.9011  0.9996  -0.6997   0.0000   0.0000   0.0000   0.4183
   1.000   0.4596   0.01295   0.00741  -0.0761  0.8920  1.0000  -0.7027   0.0000   0.0000   0.0000   0.4138
   1.100   0.4728   0.01277   0.00724  -0.0764  0.8877  1.0000  -0.7220   0.0000   0.0000   0.0000   0.4098
   1.200   0.4889   0.01256   0.00703  -0.0772  0.8843  1.0000  -0.7449   0.0000   0.0000   0.0000   0.4060
   1.300   0.5070   0.01231   0.00679  -0.0784  0.8813  1.0000  -0.7725   0.0000   0.0000   0.0000   0.4026
   1.400   0.5255   0.01208   0.00655  -0.0796  0.8785  1.0000  -0.8006   0.0000   0.0000   0.0000   0.3994
   1.500   0.5250   0.01208   0.00656  -0.0774  0.8708  1.0000  -0.8096   0.0000   0.0000   0.0000   0.3953
   1.600   0.5318   0.01197   0.00645  -0.0765  0.8646  1.0000  -0.8275   0.0000   0.0000   0.0000   0.3917
   1.700   0.5445   0.01179   0.00626  -0.0766  0.8600  1.0000  -0.8541   0.0000   0.0000   0.0000   0.3885
   1.800   0.5594   0.01159   0.00605  -0.0771  0.8561  1.0000  -0.8834   0.0000   0.0000   0.0000   0.3855
   1.900   0.5684   0.01148   0.00594  -0.0766  0.8510  1.0000  -0.9060   0.0000   0.0000   0.0000   0.3824
   2.000   0.5696   0.01146   0.00593  -0.0747  0.8430  1.0000  -0.9191   0.0000   0.0000   0.0000   0.3787
   2.100   0.5790   0.01132   0.00578  -0.0742  0.8370  1.0000  -0.9423   0.0000   0.0000   0.0000   0.3756
   2.200   0.5917   0.01115   0.00560  -0.0743  0.8321  1.0000  -0.9698   0.0000   0.0000   0.0000   0.3728
   2.300   0.5984   0.01107   0.00552  -0.0733  0.8256  1.0000  -0.9900   0.0000   0.0000   0.0000   0.3697
   2.400   0.6017   0.01104   0.00549  -0.0717  0.8175  1.0000  -1.0060   0.0000   0.0000   0.0000   0.3664
   2.500   0.6108   0.01092   0.00536  -0.0712  0.8109  1.0000  -1.0295   0.0000   0.0000   0.0000   0.3636
   2.600   0.6236   0.01077   0.00518  -0.0712  0.8051  1.0000  -1.0578   0.0000   0.0000   0.0000   0.3611
   2.700   0.6243   0.01078   0.00524  -0.0692  0.7956  1.0000  -1.0734   0.0000   0.0000   0.0000   0.3577
   2.800   0.6322   0.01069   0.00515  -0.0683  0.7876  1.0000  -1.0996   0.0000   0.0000   0.0000   0.3549
   2.900   0.6432   0.01059   0.00501  -0.0681  0.7805  1.0000  -1.1307   0.0000   0.0000   0.0000   0.3526
   3.000   0.6465   0.01059   0.00503  -0.0665  0.7704  1.0000  -1.1503   0.0000   0.0000   0.0000   0.3495
   3.100   0.6560   0.01052   0.00492  -0.0660  0.7617  1.0000  -1.1794   0.0000   0.0000   0.0000   0.3471
   3.200   0.6636   0.01049   0.00488  -0.0651  0.7524  1.0000  -1.2057   0.0000   0.0000   0.0000   0.3446
   3.300   0.6711   0.01047   0.00484  -0.0643  0.7422  1.0000  -1.2320   0.0000   0.0000   0.0000   0.3422
   3.400   0.6813   0.01043   0.00476  -0.0639  0.7330  1.0000  -1.2626   0.0000   0.0000   0.0000   0.3401
   3.500   0.6878   0.01044   0.00476  -0.0628  0.7212  1.0000  -1.2875   0.0000   0.0000   0.0000   0.3376
   3.600   0.6978   0.01043   0.00468  -0.0624  0.7099  1.0000  -1.3183   0.0000   0.0000   0.0000   0.3356
   3.700   0.7045   0.01045   0.00470  -0.0614  0.6961  1.0000  -1.3439   0.0000   0.0000   0.0000   0.3332
   3.800   0.7131   0.01048   0.00466  -0.0607  0.6823  1.0000  -1.3728   0.0000   0.0000   0.0000   0.3311
   3.900   0.7210   0.01052   0.00464  -0.0599  0.6667  1.0000  -1.4005   0.0000   0.0000   0.0000   0.3290
   4.000   0.7285   0.01059   0.00465  -0.0591  0.6504  1.0000  -1.4279   0.0000   0.0000   0.0000   0.3269
   4.100   0.7363   0.01067   0.00465  -0.0582  0.6333  1.0000  -1.4560   0.0000   0.0000   0.0000   0.3248
   4.300   0.7509   0.01089   0.00474  -0.0565  0.5959  1.0000  -1.5105   0.0000   0.0000   0.0000   0.3207
   4.400   0.7578   0.01102   0.00479  -0.0555  0.5759  1.0000  -1.5374   0.0000   0.0000   0.0000   0.3187
   4.500   0.7644   0.01117   0.00485  -0.0546  0.5552  1.0000  -1.5640   0.0000   0.0000   0.0000   0.3167
   4.600   0.7709   0.01135   0.00491  -0.0536  0.5340  1.0000  -1.5934   0.0000   0.0000   0.0000   0.3147
   4.700   0.7771   0.01154   0.00499  -0.0526  0.5126  1.0000  -1.6244   0.0000   0.0000   0.0000   0.3128
   4.800   0.7832   0.01174   0.00508  -0.0516  0.4913  1.0000  -1.6602   0.0000   0.0000   0.0000   0.3109
   4.900   0.7892   0.01196   0.00518  -0.0505  0.4703  1.0000  -1.6963   0.0000   0.0000   0.0000   0.3090
   5.000   0.7955   0.01217   0.00530  -0.0496  0.4494  1.0000  -1.7330   0.0000   0.0000   0.0000   0.3072
   5.100   0.8017   0.01239   0.00542  -0.0487  0.4287  1.0000  -1.7698   0.0000   0.0000   0.0000   0.3055
   5.200   0.8078   0.01262   0.00556  -0.0477  0.4082  1.0000  -1.8066   0.0000   0.0000   0.0000   0.3037
   5.300   0.8139   0.01287   0.00570  -0.0468  0.3881  1.0000  -1.8433   0.0000   0.0000   0.0000   0.3021
   5.400   0.8198   0.01313   0.00585  -0.0459  0.3683  1.0000  -1.8799   0.0000   0.0000   0.0000   0.3004
   5.500   0.8255   0.01341   0.00601  -0.0449  0.3492  1.0000  -1.9163   0.0000   0.0000   0.0000   0.2988
   5.600   0.8317   0.01367   0.00617  -0.0441  0.3300  1.0000  -1.9539   0.0000   0.0000   0.0000   0.2972
   5.700   0.8382   0.01392   0.00635  -0.0433  0.3120  1.0000  -1.9968   0.0000   0.0000   0.0000   0.2958
   5.800   0.8445   0.01419   0.00653  -0.0425  0.2955  1.0000  -2.0408   0.0000   0.0000   0.0000   0.2943
   5.900   0.8505   0.01449   0.00671  -0.0416  0.2800  1.0000  -2.0841   0.0000   0.0000   0.0000   0.2929
   6.000   0.8577   0.01473   0.00694  -0.0410  0.2652  1.0000  -2.1307   0.0000   0.0000   0.0000   0.2916
   6.100   0.8640   0.01503   0.00715  -0.0402  0.2525  1.0000  -2.1751   0.0000   0.0000   0.0000   0.2902
   6.200   0.8713   0.01528   0.00736  -0.0395  0.2398  1.0000  -2.2221   0.0000   0.0000   0.0000   0.2890
   6.300   0.8777   0.01559   0.00758  -0.0388  0.2290  1.0000  -2.2669   0.0000   0.0000   0.0000   0.2877
   6.400   0.8853   0.01583   0.00780  -0.0382  0.2180  1.0000  -2.3150   0.0000   0.0000   0.0000   0.2866
   6.500   0.8911   0.01620   0.00806  -0.0374  0.2085  1.0000  -2.3587   0.0000   0.0000   0.0000   0.2852
   6.600   0.8995   0.01640   0.00829  -0.0369  0.1994  1.0000  -2.4086   0.0000   0.0000   0.0000   0.2842
   6.700   0.9064   0.01669   0.00852  -0.0362  0.1909  1.0000  -2.4556   0.0000   0.0000   0.0000   0.2831
   6.800   0.9128   0.01708   0.00882  -0.0355  0.1831  1.0000  -2.5003   0.0000   0.0000   0.0000   0.2819
   6.900   0.9211   0.01728   0.00907  -0.0350  0.1759  1.0000  -2.5507   0.0000   0.0000   0.0000   0.2809
   7.000   0.9283   0.01756   0.00932  -0.0344  0.1689  1.0000  -2.5988   0.0000   0.0000   0.0000   0.2798
   7.100   0.9340   0.01808   0.00970  -0.0336  0.1616  1.0000  -2.6416   0.0000   0.0000   0.0000   0.2786
   7.200   0.9427   0.01823   0.00993  -0.0332  0.1562  1.0000  -2.6935   0.0000   0.0000   0.0000   0.2777
   7.300   0.9506   0.01845   0.01017  -0.0326  0.1503  1.0000  -2.7443   0.0000   0.0000   0.0000   0.2768
   7.400   0.9575   0.01876   0.01043  -0.0320  0.1447  1.0000  -2.7928   0.0000   0.0000   0.0000   0.2758
   7.500   0.9639   0.01935   0.01091  -0.0314  0.1386  1.0000  -2.8365   0.0000   0.0000   0.0000   0.2748
   7.600   0.9723   0.01950   0.01119  -0.0309  0.1349  1.0000  -2.8956   0.0000   0.0000   0.0000   0.2739
   7.700   0.9804   0.01973   0.01146  -0.0304  0.1305  1.0000  -2.9551   0.0000   0.0000   0.0000   0.2730
   7.800   0.9880   0.01997   0.01172  -0.0299  0.1263  1.0000  -3.0144   0.0000   0.0000   0.0000   0.2721
   7.900   0.9949   0.02031   0.01201  -0.0293  0.1221  1.0000  -3.0720   0.0000   0.0000   0.0000   0.2712
   8.000   1.0021   0.02108   0.01267  -0.0288  0.1166  1.0000  -3.1248   0.0000   0.0000   0.0000   0.2704
   8.100   1.0101   0.02119   0.01288  -0.0283  0.1141  1.0000  -3.1860   0.0000   0.0000   0.0000   0.2696
   8.200   1.0180   0.02140   0.01315  -0.0278  0.1109  1.0000  -3.2465   0.0000   0.0000   0.0000   0.2687
   8.300   1.0258   0.02166   0.01345  -0.0273  0.1077  1.0000  -3.3063   0.0000   0.0000   0.0000   0.2679
   8.400   1.0333   0.02195   0.01376  -0.0267  0.1047  1.0000  -3.3658   0.0000   0.0000   0.0000   0.2670
   8.500   1.0404   0.02228   0.01409  -0.0262  0.1018  1.0000  -3.4248   0.0000   0.0000   0.0000   0.2662
   8.600   1.0477   0.02282   0.01458  -0.0257  0.0985  1.0000  -3.4817   0.0000   0.0000   0.0000   0.2655
   8.700   1.0573   0.02375   0.01549  -0.0257  0.0946  1.0000  -3.5381   0.0000   0.0000   0.0000   0.2651
   8.800   1.0646   0.02391   0.01573  -0.0251  0.0929  1.0000  -3.5971   0.0000   0.0000   0.0000   0.2642
   8.900   1.0718   0.02413   0.01603  -0.0245  0.0904  1.0000  -3.6554   0.0000   0.0000   0.0000   0.2634
   9.000   1.0788   0.02437   0.01633  -0.0238  0.0877  1.0000  -3.7188   0.0000   0.0000   0.0000   0.2625
   9.100   1.0854   0.02462   0.01661  -0.0232  0.0850  1.0000  -3.7867   0.0000   0.0000   0.0000   0.2617
   9.200   1.0917   0.02489   0.01689  -0.0225  0.0824  1.0000  -3.8545   0.0000   0.0000   0.0000   0.2608
   9.300   1.0979   0.02525   0.01725  -0.0219  0.0799  1.0000  -3.9212   0.0000   0.0000   0.0000   0.2600
   9.400   1.1061   0.02616   0.01815  -0.0217  0.0767  1.0000  -3.9858   0.0000   0.0000   0.0000   0.2595
   9.500   1.1160   0.02727   0.01932  -0.0218  0.0740  1.0000  -4.0470   0.0000   0.0000   0.0000   0.2593
   9.600   1.1228   0.02755   0.01969  -0.0211  0.0727  1.0000  -4.1114   0.0000   0.0000   0.0000   0.2584
   9.700   1.1296   0.02792   0.02015  -0.0204  0.0711  1.0000  -4.1739   0.0000   0.0000   0.0000   0.2576
   9.800   1.1364   0.02836   0.02067  -0.0198  0.0693  1.0000  -4.2351   0.0000   0.0000   0.0000   0.2568
   9.900   1.1432   0.02883   0.02121  -0.0192  0.0676  1.0000  -4.2961   0.0000   0.0000   0.0000   0.2561
  10.000   1.1497   0.02931   0.02174  -0.0186  0.0659  1.0000  -4.3573   0.0000   0.0000   0.0000   0.2553
  10.100   1.1561   0.02977   0.02225  -0.0179  0.0643  1.0000  -4.4219   0.0000   0.0000   0.0000   0.2545
  10.200   1.1621   0.03021   0.02272  -0.0173  0.0628  1.0000  -4.5102   0.0000   0.0000   0.0000   0.2537
  10.300   1.1677   0.03067   0.02319  -0.0166  0.0613  1.0000  -4.5983   0.0000   0.0000   0.0000   0.2530
  10.400   1.1732   0.03127   0.02381  -0.0160  0.0598  1.0000  -4.6841   0.0000   0.0000   0.0000   0.2522
  10.500   1.1807   0.03274   0.02533  -0.0159  0.0576  1.0000  -4.7630   0.0000   0.0000   0.0000   0.2520
  10.600   1.1863   0.03486   0.02762  -0.0157  0.0558  1.0000  -4.8122   0.0000   0.0000   0.0000   0.2516
  10.700   1.1905   0.03508   0.02792  -0.0147  0.0552  1.0000  -4.8976   0.0000   0.0000   0.0000   0.2506
  10.800   1.1946   0.03545   0.02838  -0.0137  0.0545  1.0000  -4.9888   0.0000   0.0000   0.0000   0.2496
  10.900   1.1983   0.03599   0.02902  -0.0128  0.0538  1.0000  -5.0738   0.0000   0.0000   0.0000   0.2486
  11.000   1.2018   0.03665   0.02978  -0.0118  0.0531  1.0000  -5.1545   0.0000   0.0000   0.0000   0.2476
  11.100   1.2048   0.03736   0.03059  -0.0108  0.0524  1.0000  -5.2315   0.0000   0.0000   0.0000   0.2466
  11.200   1.2074   0.03811   0.03144  -0.0097  0.0517  1.0000  -5.3050   0.0000   0.0000   0.0000   0.2456
  11.300   1.2095   0.03889   0.03232  -0.0086  0.0510  1.0000  -5.3753   0.0000   0.0000   0.0000   0.2446
  11.400   1.2112   0.03969   0.03323  -0.0075  0.0504  1.0000  -5.4425   0.0000   0.0000   0.0000   0.2435
  11.500   1.2125   0.04052   0.03416  -0.0064  0.0498  1.0000  -5.5064   0.0000   0.0000   0.0000   0.2424
  11.600   1.2132   0.04137   0.03510  -0.0052  0.0492  1.0000  -5.5673   0.0000   0.0000   0.0000   0.2414
  11.700   1.2136   0.04223   0.03606  -0.0041  0.0487  1.0000  -5.6255   0.0000   0.0000   0.0000   0.2403
  11.800   1.2133   0.04312   0.03704  -0.0029  0.0482  1.0000  -5.6787   0.0000   0.0000   0.0000   0.2392
  11.900   1.2124   0.04403   0.03805  -0.0017  0.0478  1.0000  -5.7274   0.0000   0.0000   0.0000   0.2380
  12.000   1.2112   0.04494   0.03905  -0.0005  0.0474  1.0000  -5.7744   0.0000   0.0000   0.0000   0.2369
  12.100   1.2096   0.04584   0.04004   0.0007  0.0469  1.0000  -5.8204   0.0000   0.0000   0.0000   0.2358
  12.200   1.2079   0.04673   0.04101   0.0018  0.0465  1.0000  -5.8659   0.0000   0.0000   0.0000   0.2348
  12.300   1.2060   0.04762   0.04197   0.0028  0.0461  1.0000  -5.9119   0.0000   0.0000   0.0000   0.2337
  12.400   1.2040   0.04849   0.04297   0.0038  0.0456  1.0000  -5.9615   0.0000   0.0000   0.0000   0.2327
  12.500   1.2021   0.04934   0.04389   0.0048  0.0452  1.0000  -6.0108   0.0000   0.0000   0.0000   0.2318
  12.600   1.2003   0.05019   0.04479   0.0056  0.0447  1.0000  -6.0618   0.0000   0.0000   0.0000   0.2309
  12.700   1.1986   0.05104   0.04569   0.0064  0.0443  1.0000  -6.1154   0.0000   0.0000   0.0000   0.2301
  12.800   1.1969   0.05191   0.04661   0.0071  0.0438  1.0000  -6.1693   0.0000   0.0000   0.0000   0.2293
  12.900   1.1950   0.05285   0.04758   0.0078  0.0433  1.0000  -6.2209   0.0000   0.0000   0.0000   0.2286
  13.000   1.1924   0.05390   0.04868   0.0084  0.0429  1.0000  -6.2642   0.0000   0.0000   0.0000   0.2279
  13.100   1.1887   0.05512   0.04996   0.0090  0.0425  1.0000  -6.2953   0.0000   0.0000   0.0000   0.2272
  13.200   1.1837   0.05652   0.05142   0.0095  0.0422  1.0000  -6.3112   0.0000   0.0000   0.0000   0.2266
  13.300   1.1776   0.05806   0.05304   0.0100  0.0419  1.0000  -6.3139   0.0000   0.0000   0.0000   0.2260
  13.400   1.1704   0.05972   0.05478   0.0104  0.0417  1.0000  -6.3057   0.0000   0.0000   0.0000   0.2254
  13.500   1.1626   0.06149   0.05664   0.0106  0.0416  1.0000  -6.2895   0.0000   0.0000   0.0000   0.2250
  13.600   1.1543   0.06334   0.05858   0.0107  0.0415  1.0000  -6.2672   0.0000   0.0000   0.0000   0.2247
  13.700   1.1456   0.06528   0.06061   0.0107  0.0414  1.0000  -6.2400   0.0000   0.0000   0.0000   0.2245
  13.800   1.1367   0.06730   0.06271   0.0105  0.0413  1.0000  -6.2085   0.0000   0.0000   0.0000   0.2244
  13.900   1.1275   0.06940   0.06489   0.0101  0.0413  1.0000  -6.1729   0.0000   0.0000   0.0000   0.2245
  14.000   1.1181   0.07160   0.06718   0.0095  0.0413  1.0000  -6.1331   0.0000   0.0000   0.0000   0.2247
  14.100   1.1084   0.07392   0.06958   0.0088  0.0414  1.0000  -6.0886   0.0000   0.0000   0.0000   0.2251
  14.200   1.0984   0.07637   0.07212   0.0078  0.0414  1.0000  -6.0377   0.0000   0.0000   0.0000   0.2258
  14.300   1.0879   0.07903   0.07486   0.0065  0.0415  1.0000  -5.9771   0.0000   0.0000   0.0000   0.2267
  14.400   1.0760   0.08201   0.07794   0.0049  0.0418  1.0000  -5.8967   0.0000   0.0000   0.0000   0.2279
  14.500   0.8684   0.13394   0.13013  -0.0282  0.0538  1.0000  -3.1587   0.0000   0.0000   0.0000   0.2666
  14.600   0.8614   0.13801   0.13419  -0.0301  0.0541  1.0000  -3.0651   0.0000   0.0000   0.0000   0.2691
  14.700   0.8559   0.14168   0.13784  -0.0318  0.0545  1.0000  -2.9910   0.0000   0.0000   0.0000   0.2713
  14.800   0.8517   0.14507   0.14122  -0.0332  0.0549  1.0000  -2.9315   0.0000   0.0000   0.0000   0.2731
  14.900   0.8483   0.14832   0.14447  -0.0342  0.0555  1.0000  -2.8876   0.0000   0.0000   0.0000   0.2743


