xflr5 v6.61

 Calculated polar for: SG6041

 1 1 Reynolds number fixed          Mach number fixed         

 xtrf =   1.000 (top)        1.000 (bottom)
 Mach =   0.000     Re =     0.350 e 6     Ncrit =   9.000

  alpha     CL        CD       CDp       Cm    Top Xtr Bot Xtr   Cpmin    Chinge    XCp    
 ------- -------- --------- --------- -------- ------- ------- -------- --------- ---------
 -10.000  -0.4163   0.10164   0.09881  -0.0383  1.0000  0.0252  -2.1348   0.0000   0.0000   0.0000   0.1496
  -9.900  -0.4166   0.10014   0.09733  -0.0388  1.0000  0.0252  -2.1502   0.0000   0.0000   0.0000   0.1485
  -9.800  -0.4170   0.09862   0.09582  -0.0393  1.0000  0.0253  -2.1662   0.0000   0.0000   0.0000   0.1474
  -9.700  -0.4175   0.09709   0.09431  -0.0399  1.0000  0.0253  -2.1829   0.0000   0.0000   0.0000   0.1464
  -9.600  -0.4183   0.09555   0.09278  -0.0404  1.0000  0.0253  -2.2005   0.0000   0.0000   0.0000   0.1454
  -9.500  -0.4192   0.09399   0.09124  -0.0410  1.0000  0.0253  -2.2191   0.0000   0.0000   0.0000   0.1444
  -9.400  -0.4348   0.08911   0.08641  -0.0423  1.0000  0.0258  -2.4069   0.0000   0.0000   0.0000   0.1450
  -9.300  -0.4407   0.08678   0.08410  -0.0428  1.0000  0.0261  -2.4550   0.0000   0.0000   0.0000   0.1455
  -9.200  -0.4445   0.08501   0.08235  -0.0431  1.0000  0.0262  -2.4767   0.0000   0.0000   0.0000   0.1458
  -9.100  -0.4478   0.08341   0.08076  -0.0434  1.0000  0.0264  -2.4924   0.0000   0.0000   0.0000   0.1460
  -9.000  -0.4506   0.08199   0.07936  -0.0435  1.0000  0.0265  -2.4976   0.0000   0.0000   0.0000   0.1464
  -8.900  -0.4529   0.08074   0.07813  -0.0434  1.0000  0.0267  -2.4927   0.0000   0.0000   0.0000   0.1472
  -8.800  -0.4560   0.07944   0.07685  -0.0435  1.0000  0.0268  -2.4972   0.0000   0.0000   0.0000   0.1479
  -8.700  -0.4603   0.07805   0.07548  -0.0437  1.0000  0.0268  -2.5134   0.0000   0.0000   0.0000   0.1485
  -8.600  -0.4668   0.07647   0.07393  -0.0442  1.0000  0.0268  -2.5514   0.0000   0.0000   0.0000   0.1490
  -8.500  -0.4805   0.07425   0.07173  -0.0457  1.0000  0.0267  -2.6652   0.0000   0.0000   0.0000   0.1488
  -8.400  -0.4971   0.07292   0.07040  -0.0453  1.0000  0.0265  -2.7734   0.0000   0.0000   0.0000   0.1531
  -8.300  -0.5097   0.07233   0.06981  -0.0435  1.0000  0.0264  -2.8223   0.0000   0.0000   0.0000   0.1589
  -8.200  -0.5204   0.07162   0.06911  -0.0419  1.0000  0.0264  -2.8590   0.0000   0.0000   0.0000   0.1641
  -8.100  -0.5288   0.07063   0.06811  -0.0407  1.0000  0.0264  -2.8876   0.0000   0.0000   0.0000   0.1677
  -8.000  -0.5368   0.06960   0.06707  -0.0395  1.0000  0.0264  -2.9125   0.0000   0.0000   0.0000   0.1711
  -7.900  -0.5441   0.06855   0.06601  -0.0384  1.0000  0.0265  -2.9331   0.0000   0.0000   0.0000   0.1743
  -7.800  -0.5507   0.06746   0.06491  -0.0374  1.0000  0.0266  -2.9494   0.0000   0.0000   0.0000   0.1771
  -7.700  -0.5453   0.06592   0.06335  -0.0386  0.9989  0.0268  -2.8931   0.0000   0.0000   0.0000   0.1744
  -7.600  -0.5394   0.06444   0.06186  -0.0398  0.9976  0.0271  -2.8384   0.0000   0.0000   0.0000   0.1714
  -7.500  -0.5332   0.06287   0.06026  -0.0412  0.9961  0.0274  -2.7925   0.0000   0.0000   0.0000   0.1680
  -7.400  -0.5266   0.06127   0.05862  -0.0427  0.9946  0.0276  -2.7489   0.0000   0.0000   0.0000   0.1643
  -7.300  -0.5195   0.05964   0.05695  -0.0442  0.9931  0.0280  -2.7066   0.0000   0.0000   0.0000   0.1602
  -7.200  -0.5118   0.05797   0.05523  -0.0458  0.9918  0.0283  -2.6655   0.0000   0.0000   0.0000   0.1558
  -7.100  -0.5035   0.05632   0.05353  -0.0475  0.9908  0.0287  -2.6236   0.0000   0.0000   0.0000   0.1511
  -7.000  -0.4984   0.05486   0.05202  -0.0481  0.9889  0.0290  -2.5927   0.0000   0.0000   0.0000   0.1488
  -6.900  -0.4930   0.05338   0.05049  -0.0488  0.9869  0.0294  -2.5637   0.0000   0.0000   0.0000   0.1465
  -6.800  -0.4868   0.05186   0.04891  -0.0495  0.9848  0.0299  -2.5350   0.0000   0.0000   0.0000   0.1437
  -6.700  -0.4798   0.05031   0.04728  -0.0504  0.9829  0.0304  -2.5065   0.0000   0.0000   0.0000   0.1404
  -6.600  -0.4720   0.04872   0.04561  -0.0513  0.9810  0.0310  -2.4789   0.0000   0.0000   0.0000   0.1368
  -6.500  -0.4635   0.04710   0.04391  -0.0523  0.9793  0.0317  -2.4522   0.0000   0.0000   0.0000   0.1327
  -6.400  -0.4541   0.04549   0.04219  -0.0532  0.9778  0.0325  -2.4268   0.0000   0.0000   0.0000   0.1282
  -6.300  -0.4439   0.04393   0.04052  -0.0541  0.9764  0.0334  -2.4141   0.0000   0.0000   0.0000   0.1234
  -6.200  -0.4324   0.04261   0.03906  -0.0550  0.9752  0.0346  -2.4098   0.0000   0.0000   0.0000   0.1181
  -6.100  -0.4159   0.04279   0.03913  -0.0555  0.9744  0.0365  -2.3665   0.0000   0.0000   0.0000   0.1119
  -6.000  -0.3997   0.04345   0.03964  -0.0560  0.9736  0.0374  -2.3063   0.0000   0.0000   0.0000   0.1050
  -5.900  -0.3880   0.04235   0.03842  -0.0568  0.9727  0.0375  -2.2883   0.0000   0.0000   0.0000   0.0986
  -5.400  -0.3708   0.02648   0.02141  -0.0541  0.9606  0.0229  -2.8636   0.0000   0.0000   0.0000   0.0989
  -5.300  -0.3642   0.02190   0.01605  -0.0524  0.9590  0.0176  -3.3020   0.0000   0.0000   0.0000   0.1006
  -5.200  -0.3514   0.02153   0.01561  -0.0526  0.9579  0.0173  -3.2427   0.0000   0.0000   0.0000   0.0946
  -5.100  -0.3383   0.02117   0.01519  -0.0530  0.9568  0.0171  -3.1759   0.0000   0.0000   0.0000   0.0877
  -5.000  -0.3249   0.02078   0.01474  -0.0534  0.9559  0.0170  -3.1084   0.0000   0.0000   0.0000   0.0799
  -4.900  -0.3126   0.01980   0.01361  -0.0537  0.9550  0.0167  -3.0898   0.0000   0.0000   0.0000   0.0724
  -4.800  -0.3002   0.01873   0.01243  -0.0540  0.9542  0.0166  -3.0828   0.0000   0.0000   0.0000   0.0644
  -4.700  -0.2873   0.01793   0.01154  -0.0543  0.9535  0.0165  -3.0557   0.0000   0.0000   0.0000   0.0549
  -4.600  -0.2739   0.01726   0.01079  -0.0547  0.9528  0.0166  -3.0192   0.0000   0.0000   0.0000   0.0441
  -4.500  -0.2604   0.01669   0.01014  -0.0552  0.9522  0.0166  -2.9760   0.0000   0.0000   0.0000   0.0318
  -4.400  -0.2466   0.01619   0.00959  -0.0557  0.9516  0.0167  -2.9269   0.0000   0.0000   0.0000   0.0177
  -4.300  -0.2324   0.01577   0.00912  -0.0563  0.9510  0.0169  -2.8715   0.0000   0.0000   0.0000   0.0013
  -4.200  -0.2201   0.01484   0.00812  -0.0566  0.9504  0.0174  -2.8791   0.0000   0.0000   0.0000  -0.0137
  -4.100  -0.2069   0.01417   0.00741  -0.0570  0.9497  0.0185  -2.8618   0.0000   0.0000   0.0000  -0.0327
  -4.000  -0.1923   0.01382   0.00705  -0.0578  0.9492  0.0199  -2.8029   0.0000   0.0000   0.0000  -0.0577
  -3.900  -0.1922   0.01370   0.00692  -0.0555  0.9447  0.0207  -2.7748   0.0000   0.0000   0.0000  -0.0456
  -3.800  -0.1837   0.01352   0.00673  -0.0549  0.9421  0.0225  -2.7305   0.0000   0.0000   0.0000  -0.0559
  -3.700  -0.1727   0.01335   0.00654  -0.0548  0.9402  0.0248  -2.6838   0.0000   0.0000   0.0000  -0.0746
  -3.600  -0.1622   0.01286   0.00607  -0.0547  0.9383  0.0318  -2.6739   0.0000   0.0000   0.0000  -0.0946
  -3.500  -0.1489   0.01275   0.00596  -0.0551  0.9370  0.0376  -2.5952   0.0000   0.0000   0.0000  -0.1280
  -3.400  -0.1363   0.01240   0.00569  -0.0555  0.9357  0.0516  -2.5221   0.0000   0.0000   0.0000  -0.1651
  -3.300  -0.1227   0.01219   0.00552  -0.0560  0.9346  0.0638  -2.4245   0.0000   0.0000   0.0000  -0.2153
  -3.200  -0.1083   0.01208   0.00544  -0.0568  0.9336  0.0741  -2.3114   0.0000   0.0000   0.0000  -0.2836
  -3.100  -0.0941   0.01184   0.00525  -0.0574  0.9327  0.0872  -2.2088   0.0000   0.0000   0.0000  -0.3707
  -3.000  -0.0792   0.01167   0.00509  -0.0582  0.9319  0.0980  -2.1000   0.0000   0.0000   0.0000  -0.4969
  -2.900  -0.0648   0.01141   0.00492  -0.0590  0.9311  0.1191  -1.9956   0.0000   0.0000   0.0000  -0.6743
  -2.800  -0.0511   0.01109   0.00477  -0.0597  0.9303  0.1568  -1.8932   0.0000   0.0000   0.0000  -0.9363
  -2.700  -0.0385   0.01062   0.00462  -0.0603  0.9294  0.2352  -1.7962   0.0000   0.0000   0.0000  -1.3362
  -2.600  -0.0274   0.00998   0.00446  -0.0607  0.9284  0.3590  -1.7058   0.0000   0.0000   0.0000  -1.9913
  -2.500  -0.0175   0.00932   0.00435  -0.0608  0.9273  0.5021  -1.6200   0.0000   0.0000   0.0000  -3.2577
  -2.400  -0.0070   0.00892   0.00437  -0.0607  0.9262  0.6116  -1.5305   0.0000   0.0000   0.0000  -8.5819
  -2.300   0.0003   0.00882   0.00441  -0.0597  0.9237  0.6599  -1.4554   0.0000   0.0000   0.0000  201.0040
  -2.200   0.0049   0.00878   0.00445  -0.0582  0.9198  0.6865  -1.3917   0.0000   0.0000   0.0000  12.2446
  -2.100   0.0143   0.00873   0.00443  -0.0577  0.9172  0.7094  -1.3089   0.0000   0.0000   0.0000   4.3144
  -2.000   0.0256   0.00868   0.00438  -0.0575  0.9150  0.7276  -1.2193   0.0000   0.0000   0.0000   2.5217
  -1.900   0.0375   0.00861   0.00435  -0.0575  0.9132  0.7412  -1.1309   0.0000   0.0000   0.0000   1.7986
  -1.800   0.0502   0.00856   0.00428  -0.0577  0.9115  0.7538  -1.0410   0.0000   0.0000   0.0000   1.4077
  -1.700   0.0631   0.00849   0.00424  -0.0578  0.9099  0.7641  -0.9523   0.0000   0.0000   0.0000   1.1737
  -1.600   0.0765   0.00844   0.00418  -0.0581  0.9085  0.7742  -0.8633   0.0000   0.0000   0.0000   1.0147
  -1.500   0.0901   0.00838   0.00412  -0.0584  0.9071  0.7836  -0.7758   0.0000   0.0000   0.0000   0.9028
  -1.400   0.1034   0.00832   0.00407  -0.0586  0.9057  0.7937  -0.6955   0.0000   0.0000   0.0000   0.8205
  -1.300   0.1170   0.00828   0.00401  -0.0590  0.9043  0.8034  -0.6296   0.0000   0.0000   0.0000   0.7567
  -1.200   0.1302   0.00823   0.00398  -0.0591  0.9029  0.8111  -0.5659   0.0000   0.0000   0.0000   0.7064
  -1.100   0.1412   0.00821   0.00397  -0.0589  0.9007  0.8194  -0.5089   0.0000   0.0000   0.0000   0.6689
  -1.000   0.1479   0.00822   0.00396  -0.0579  0.8969  0.8269  -0.4657   0.0000   0.0000   0.0000   0.6427
  -0.900   0.1570   0.00818   0.00394  -0.0572  0.8937  0.8331  -0.4303   0.0000   0.0000   0.0000   0.6156
  -0.800   0.1674   0.00814   0.00391  -0.0569  0.8908  0.8403  -0.4011   0.0000   0.0000   0.0000   0.5903
  -0.700   0.1784   0.00811   0.00387  -0.0566  0.8882  0.8491  -0.4035   0.0000   0.0000   0.0000   0.5677
  -0.600   0.1893   0.00805   0.00384  -0.0562  0.8858  0.8582  -0.4131   0.0000   0.0000   0.0000   0.5471
  -0.500   0.2001   0.00802   0.00382  -0.0558  0.8835  0.8688  -0.4229   0.0000   0.0000   0.0000   0.5287
  -0.400   0.2111   0.00798   0.00378  -0.0554  0.8813  0.8785  -0.4343   0.0000   0.0000   0.0000   0.5122
  -0.300   0.2224   0.00794   0.00375  -0.0550  0.8791  0.8860  -0.4461   0.0000   0.0000   0.0000   0.4971
  -0.200   0.2323   0.00794   0.00374  -0.0545  0.8763  0.8931  -0.4570   0.0000   0.0000   0.0000   0.4842
  -0.100   0.2392   0.00793   0.00374  -0.0535  0.8722  0.8998  -0.4659   0.0000   0.0000   0.0000   0.4730
   0.000   0.2489   0.00789   0.00371  -0.0529  0.8686  0.9049  -0.4773   0.0000   0.0000   0.0000   0.4619
   0.100   0.2596   0.00785   0.00367  -0.0526  0.8651  0.9096  -0.4899   0.0000   0.0000   0.0000   0.4517
   0.200   0.2709   0.00780   0.00361  -0.0524  0.8619  0.9142  -0.5030   0.0000   0.0000   0.0000   0.4425
   0.300   0.2825   0.00776   0.00354  -0.0523  0.8589  0.9185  -0.5164   0.0000   0.0000   0.0000   0.4341
   0.400   0.2943   0.00772   0.00348  -0.0523  0.8561  0.9225  -0.5310   0.0000   0.0000   0.0000   0.4265
   0.500   0.3075   0.00769   0.00342  -0.0526  0.8532  0.9256  -0.5472   0.0000   0.0000   0.0000   0.4197
   0.600   0.3176   0.00767   0.00342  -0.0523  0.8490  0.9291  -0.5611   0.0000   0.0000   0.0000   0.4131
   0.700   0.3290   0.00764   0.00339  -0.0522  0.8447  0.9324  -0.5780   0.0000   0.0000   0.0000   0.4071
   0.800   0.3410   0.00761   0.00335  -0.0522  0.8404  0.9359  -0.5956   0.0000   0.0000   0.0000   0.4015
   0.900   0.3533   0.00757   0.00330  -0.0523  0.8362  0.9394  -0.6136   0.0000   0.0000   0.0000   0.3964
   1.000   0.3662   0.00753   0.00323  -0.0525  0.8325  0.9428  -0.6322   0.0000   0.0000   0.0000   0.3916
   1.100   0.3783   0.00751   0.00319  -0.0526  0.8286  0.9464  -0.6502   0.0000   0.0000   0.0000   0.3872
   1.200   0.3901   0.00750   0.00318  -0.0527  0.8234  0.9497  -0.6679   0.0000   0.0000   0.0000   0.3831
   1.300   0.4044   0.00748   0.00316  -0.0533  0.8183  0.9519  -0.6878   0.0000   0.0000   0.0000   0.3798
   1.400   0.4192   0.00745   0.00313  -0.0540  0.8134  0.9541  -0.7083   0.0000   0.0000   0.0000   0.3767
   1.500   0.4342   0.00743   0.00308  -0.0547  0.8089  0.9563  -0.7292   0.0000   0.0000   0.0000   0.3738
   1.600   0.4490   0.00742   0.00306  -0.0554  0.8040  0.9586  -0.7526   0.0000   0.0000   0.0000   0.3710
   1.700   0.4622   0.00742   0.00306  -0.0558  0.7975  0.9618  -0.7751   0.0000   0.0000   0.0000   0.3683
   1.800   0.4757   0.00741   0.00304  -0.0562  0.7910  0.9648  -0.7980   0.0000   0.0000   0.0000   0.3658
   1.900   0.4892   0.00739   0.00300  -0.0566  0.7847  0.9677  -0.8235   0.0000   0.0000   0.0000   0.3632
   2.000   0.5012   0.00739   0.00298  -0.0568  0.7777  0.9711  -0.8490   0.0000   0.0000   0.0000   0.3606
   2.100   0.5169   0.00738   0.00296  -0.0577  0.7689  0.9726  -0.8791   0.0000   0.0000   0.0000   0.3590
   2.200   0.5330   0.00738   0.00291  -0.0587  0.7607  0.9739  -0.9098   0.0000   0.0000   0.0000   0.3573
   2.300   0.5487   0.00738   0.00290  -0.0596  0.7518  0.9756  -0.9403   0.0000   0.0000   0.0000   0.3559
   2.400   0.5641   0.00739   0.00288  -0.0605  0.7421  0.9775  -0.9707   0.0000   0.0000   0.0000   0.3544
   2.500   0.5794   0.00741   0.00286  -0.0614  0.7335  0.9795  -1.0011   0.0000   0.0000   0.0000   0.3529
   2.600   0.5941   0.00743   0.00287  -0.0621  0.7233  0.9820  -1.0310   0.0000   0.0000   0.0000   0.3515
   2.700   0.6083   0.00746   0.00285  -0.0628  0.7126  0.9845  -1.0650   0.0000   0.0000   0.0000   0.3501
   2.800   0.6220   0.00750   0.00288  -0.0633  0.7004  0.9873  -1.0993   0.0000   0.0000   0.0000   0.3486
   3.000   0.6499   0.00761   0.00287  -0.0645  0.6700  0.9922  -1.1695   0.0000   0.0000   0.0000   0.3459
   3.100   0.6647   0.00768   0.00287  -0.0654  0.6526  0.9946  -1.2062   0.0000   0.0000   0.0000   0.3449
   3.200   0.6791   0.00777   0.00287  -0.0661  0.6339  0.9971  -1.2426   0.0000   0.0000   0.0000   0.3438
   3.300   0.6934   0.00789   0.00289  -0.0669  0.6137  0.9995  -1.2791   0.0000   0.0000   0.0000   0.3428
   3.400   0.6995   0.00797   0.00290  -0.0660  0.5958  1.0000  -1.3035   0.0000   0.0000   0.0000   0.3406
   3.500   0.7029   0.00806   0.00292  -0.0645  0.5794  1.0000  -1.3242   0.0000   0.0000   0.0000   0.3380
   3.600   0.7063   0.00817   0.00294  -0.0630  0.5625  1.0000  -1.3448   0.0000   0.0000   0.0000   0.3353
   3.700   0.7101   0.00829   0.00297  -0.0616  0.5447  1.0000  -1.3662   0.0000   0.0000   0.0000   0.3328
   3.800   0.7149   0.00841   0.00302  -0.0604  0.5271  1.0000  -1.3891   0.0000   0.0000   0.0000   0.3304
   3.900   0.7200   0.00854   0.00307  -0.0593  0.5102  1.0000  -1.4127   0.0000   0.0000   0.0000   0.3281
   4.000   0.7253   0.00870   0.00313  -0.0581  0.4933  1.0000  -1.4366   0.0000   0.0000   0.0000   0.3259
   4.100   0.7313   0.00884   0.00320  -0.0572  0.4751  1.0000  -1.4616   0.0000   0.0000   0.0000   0.3238
   4.200   0.7373   0.00900   0.00327  -0.0562  0.4571  1.0000  -1.4869   0.0000   0.0000   0.0000   0.3218
   4.300   0.7433   0.00917   0.00338  -0.0552  0.4388  1.0000  -1.5122   0.0000   0.0000   0.0000   0.3197
   4.400   0.7492   0.00935   0.00347  -0.0542  0.4200  1.0000  -1.5375   0.0000   0.0000   0.0000   0.3178
   4.500   0.7556   0.00954   0.00356  -0.0533  0.4008  1.0000  -1.5635   0.0000   0.0000   0.0000   0.3159
   4.600   0.7623   0.00971   0.00366  -0.0525  0.3822  1.0000  -1.5903   0.0000   0.0000   0.0000   0.3141
   4.700   0.7692   0.00990   0.00375  -0.0518  0.3644  1.0000  -1.6212   0.0000   0.0000   0.0000   0.3124
   4.800   0.7760   0.01009   0.00386  -0.0510  0.3473  1.0000  -1.6582   0.0000   0.0000   0.0000   0.3107
   4.900   0.7833   0.01027   0.00396  -0.0503  0.3307  1.0000  -1.6971   0.0000   0.0000   0.0000   0.3091
   5.000   0.7910   0.01044   0.00407  -0.0497  0.3159  1.0000  -1.7371   0.0000   0.0000   0.0000   0.3076
   5.100   0.7982   0.01064   0.00419  -0.0490  0.3012  1.0000  -1.7763   0.0000   0.0000   0.0000   0.3061
   5.200   0.8062   0.01080   0.00430  -0.0485  0.2869  1.0000  -1.8174   0.0000   0.0000   0.0000   0.3047
   5.300   0.8139   0.01099   0.00442  -0.0479  0.2736  1.0000  -1.8582   0.0000   0.0000   0.0000   0.3033
   5.400   0.8216   0.01117   0.00454  -0.0473  0.2602  1.0000  -1.8993   0.0000   0.0000   0.0000   0.3020
   5.500   0.8297   0.01134   0.00466  -0.0468  0.2482  1.0000  -1.9425   0.0000   0.0000   0.0000   0.3007
   5.600   0.8375   0.01154   0.00479  -0.0462  0.2359  1.0000  -1.9906   0.0000   0.0000   0.0000   0.2994
   5.700   0.8457   0.01171   0.00492  -0.0457  0.2252  1.0000  -2.0402   0.0000   0.0000   0.0000   0.2982
   5.800   0.8536   0.01189   0.00505  -0.0452  0.2141  1.0000  -2.0894   0.0000   0.0000   0.0000   0.2970
   5.900   0.8617   0.01208   0.00522  -0.0447  0.2043  1.0000  -2.1393   0.0000   0.0000   0.0000   0.2958
   6.000   0.8700   0.01225   0.00536  -0.0442  0.1948  1.0000  -2.1903   0.0000   0.0000   0.0000   0.2947
   6.100   0.8775   0.01248   0.00551  -0.0436  0.1850  1.0000  -2.2389   0.0000   0.0000   0.0000   0.2934
   6.200   0.8864   0.01261   0.00565  -0.0432  0.1778  1.0000  -2.2919   0.0000   0.0000   0.0000   0.2924
   6.300   0.8944   0.01281   0.00580  -0.0427  0.1696  1.0000  -2.3430   0.0000   0.0000   0.0000   0.2913
   6.400   0.9018   0.01304   0.00598  -0.0421  0.1610  1.0000  -2.3924   0.0000   0.0000   0.0000   0.2901
   6.500   0.9108   0.01317   0.00612  -0.0418  0.1550  1.0000  -2.4469   0.0000   0.0000   0.0000   0.2892
   6.600   0.9189   0.01336   0.00627  -0.0413  0.1479  1.0000  -2.4992   0.0000   0.0000   0.0000   0.2881
   6.700   0.9260   0.01363   0.00647  -0.0406  0.1398  1.0000  -2.5482   0.0000   0.0000   0.0000   0.2870
   6.800   0.9350   0.01376   0.00662  -0.0403  0.1351  1.0000  -2.6037   0.0000   0.0000   0.0000   0.2861
   6.900   0.9435   0.01391   0.00677  -0.0399  0.1297  1.0000  -2.6582   0.0000   0.0000   0.0000   0.2851
   7.000   0.9512   0.01413   0.00694  -0.0393  0.1238  1.0000  -2.7108   0.0000   0.0000   0.0000   0.2841
   7.100   0.9575   0.01446   0.00721  -0.0386  0.1167  1.0000  -2.7575   0.0000   0.0000   0.0000   0.2829
   7.200   0.9669   0.01455   0.00734  -0.0383  0.1139  1.0000  -2.8158   0.0000   0.0000   0.0000   0.2821
   7.300   0.9756   0.01469   0.00750  -0.0379  0.1102  1.0000  -2.8720   0.0000   0.0000   0.0000   0.2812
   7.400   0.9837   0.01488   0.00770  -0.0374  0.1063  1.0000  -2.9298   0.0000   0.0000   0.0000   0.2803
   7.500   0.9912   0.01511   0.00790  -0.0368  0.1022  1.0000  -2.9909   0.0000   0.0000   0.0000   0.2793
   7.600   0.9973   0.01545   0.00820  -0.0360  0.0972  1.0000  -3.0453   0.0000   0.0000   0.0000   0.2782
   7.700   1.0049   0.01568   0.00845  -0.0354  0.0943  1.0000  -3.1059   0.0000   0.0000   0.0000   0.2772
   7.800   1.0139   0.01579   0.00860  -0.0351  0.0923  1.0000  -3.1743   0.0000   0.0000   0.0000   0.2764
   7.900   1.0225   0.01593   0.00876  -0.0347  0.0897  1.0000  -3.2416   0.0000   0.0000   0.0000   0.2757
   8.000   1.0308   0.01609   0.00893  -0.0343  0.0869  1.0000  -3.3081   0.0000   0.0000   0.0000   0.2748
   8.100   1.0386   0.01628   0.00912  -0.0338  0.0840  1.0000  -3.3732   0.0000   0.0000   0.0000   0.2740
   8.200   1.0457   0.01653   0.00934  -0.0331  0.0810  1.0000  -3.4356   0.0000   0.0000   0.0000   0.2730
   8.300   1.0513   0.01689   0.00969  -0.0323  0.0775  1.0000  -3.4897   0.0000   0.0000   0.0000   0.2719
   8.400   1.0562   0.01734   0.01014  -0.0313  0.0745  1.0000  -3.5389   0.0000   0.0000   0.0000   0.2707
   8.500   1.0650   0.01744   0.01029  -0.0309  0.0736  1.0000  -3.6092   0.0000   0.0000   0.0000   0.2700
   8.600   1.0734   0.01758   0.01046  -0.0305  0.0723  1.0000  -3.6780   0.0000   0.0000   0.0000   0.2692
   8.700   1.0814   0.01774   0.01066  -0.0300  0.0707  1.0000  -3.7454   0.0000   0.0000   0.0000   0.2685
   8.800   1.0891   0.01792   0.01086  -0.0294  0.0688  1.0000  -3.8128   0.0000   0.0000   0.0000   0.2676
   8.900   1.0965   0.01810   0.01107  -0.0289  0.0669  1.0000  -3.8876   0.0000   0.0000   0.0000   0.2668
   9.000   1.1033   0.01830   0.01128  -0.0282  0.0649  1.0000  -3.9606   0.0000   0.0000   0.0000   0.2659
   9.100   1.1094   0.01855   0.01152  -0.0274  0.0628  1.0000  -4.0303   0.0000   0.0000   0.0000   0.2649
   9.200   1.1140   0.01891   0.01190  -0.0264  0.0604  1.0000  -4.0915   0.0000   0.0000   0.0000   0.2638
   9.300   1.1159   0.01953   0.01253  -0.0249  0.0574  1.0000  -4.1338   0.0000   0.0000   0.0000   0.2623
   9.400   1.1204   0.02000   0.01304  -0.0239  0.0557  1.0000  -4.1900   0.0000   0.0000   0.0000   0.2612
   9.500   1.1281   0.02010   0.01318  -0.0234  0.0549  1.0000  -4.2693   0.0000   0.0000   0.0000   0.2604
   9.600   1.1354   0.02024   0.01336  -0.0228  0.0537  1.0000  -4.3467   0.0000   0.0000   0.0000   0.2596
   9.700   1.1423   0.02042   0.01358  -0.0221  0.0523  1.0000  -4.4219   0.0000   0.0000   0.0000   0.2588
   9.800   1.1489   0.02063   0.01381  -0.0215  0.0508  1.0000  -4.4959   0.0000   0.0000   0.0000   0.2580
   9.900   1.1553   0.02085   0.01405  -0.0208  0.0492  1.0000  -4.5697   0.0000   0.0000   0.0000   0.2571
  10.000   1.1615   0.02107   0.01429  -0.0200  0.0477  1.0000  -4.6434   0.0000   0.0000   0.0000   0.2563
  10.100   1.1671   0.02134   0.01457  -0.0193  0.0463  1.0000  -4.7140   0.0000   0.0000   0.0000   0.2554
  10.200   1.1717   0.02169   0.01492  -0.0184  0.0449  1.0000  -4.8007   0.0000   0.0000   0.0000   0.2544
  10.300   1.1752   0.02216   0.01540  -0.0173  0.0434  1.0000  -4.8917   0.0000   0.0000   0.0000   0.2533
  10.400   1.1770   0.02287   0.01614  -0.0160  0.0418  1.0000  -4.9648   0.0000   0.0000   0.0000   0.2521
  10.500   1.1769   0.02419   0.01755  -0.0146  0.0398  1.0000  -5.0062   0.0000   0.0000   0.0000   0.2507
  10.600   1.1833   0.02439   0.01778  -0.0139  0.0395  1.0000  -5.1247   0.0000   0.0000   0.0000   0.2500
  10.700   1.1894   0.02462   0.01806  -0.0133  0.0392  1.0000  -5.2419   0.0000   0.0000   0.0000   0.2492
  10.800   1.1953   0.02489   0.01837  -0.0126  0.0387  1.0000  -5.3569   0.0000   0.0000   0.0000   0.2484
  10.900   1.2009   0.02520   0.01873  -0.0118  0.0382  1.0000  -5.4697   0.0000   0.0000   0.0000   0.2476
  11.000   1.2062   0.02554   0.01912  -0.0111  0.0376  1.0000  -5.5809   0.0000   0.0000   0.0000   0.2468
  11.100   1.2114   0.02590   0.01953  -0.0104  0.0370  1.0000  -5.6917   0.0000   0.0000   0.0000   0.2460
  11.200   1.2165   0.02626   0.01993  -0.0096  0.0363  1.0000  -5.8024   0.0000   0.0000   0.0000   0.2452
  11.300   1.2213   0.02663   0.02034  -0.0089  0.0356  1.0000  -5.9129   0.0000   0.0000   0.0000   0.2444
  11.400   1.2260   0.02699   0.02075  -0.0081  0.0349  1.0000  -6.0234   0.0000   0.0000   0.0000   0.2436
  11.500   1.2305   0.02735   0.02115  -0.0074  0.0343  1.0000  -6.1343   0.0000   0.0000   0.0000   0.2428
  11.600   1.2349   0.02771   0.02154  -0.0066  0.0336  1.0000  -6.2459   0.0000   0.0000   0.0000   0.2421
  11.700   1.2392   0.02807   0.02197  -0.0059  0.0330  1.0000  -6.3611   0.0000   0.0000   0.0000   0.2413
  11.800   1.2432   0.02845   0.02238  -0.0051  0.0324  1.0000  -6.4725   0.0000   0.0000   0.0000   0.2405
  11.900   1.2469   0.02885   0.02281  -0.0044  0.0318  1.0000  -6.5816   0.0000   0.0000   0.0000   0.2397
  12.000   1.2502   0.02929   0.02328  -0.0036  0.0313  1.0000  -6.6877   0.0000   0.0000   0.0000   0.2389
  12.100   1.2532   0.02980   0.02383  -0.0028  0.0308  1.0000  -6.7889   0.0000   0.0000   0.0000   0.2381
  12.200   1.2557   0.03039   0.02445  -0.0019  0.0303  1.0000  -6.8842   0.0000   0.0000   0.0000   0.2373
  12.300   1.2575   0.03107   0.02517  -0.0011  0.0298  1.0000  -6.9720   0.0000   0.0000   0.0000   0.2365
  12.400   1.2587   0.03189   0.02604  -0.0002  0.0292  1.0000  -7.0503   0.0000   0.0000   0.0000   0.2356
  12.500   1.2590   0.03291   0.02712   0.0007  0.0287  1.0000  -7.1148   0.0000   0.0000   0.0000   0.2347
  12.600   1.2580   0.03422   0.02853   0.0017  0.0281  1.0000  -7.1592   0.0000   0.0000   0.0000   0.2338
  12.700   1.2548   0.03593   0.03039   0.0028  0.0276  1.0000  -7.1735   0.0000   0.0000   0.0000   0.2328
  12.800   1.2514   0.03757   0.03216   0.0038  0.0272  1.0000  -7.1900   0.0000   0.0000   0.0000   0.2318
  12.900   1.2536   0.03812   0.03277   0.0045  0.0271  1.0000  -7.2844   0.0000   0.0000   0.0000   0.2311
  13.000   1.2553   0.03871   0.03342   0.0052  0.0269  1.0000  -7.3753   0.0000   0.0000   0.0000   0.2304
  13.100   1.2567   0.03936   0.03413   0.0058  0.0268  1.0000  -7.4618   0.0000   0.0000   0.0000   0.2297
  13.200   1.2578   0.04006   0.03489   0.0065  0.0266  1.0000  -7.5451   0.0000   0.0000   0.0000   0.2290
  13.300   1.2585   0.04080   0.03571   0.0071  0.0265  1.0000  -7.6247   0.0000   0.0000   0.0000   0.2284
  13.400   1.2588   0.04161   0.03659   0.0077  0.0263  1.0000  -7.6991   0.0000   0.0000   0.0000   0.2277
  13.500   1.2588   0.04247   0.03751   0.0083  0.0261  1.0000  -7.7702   0.0000   0.0000   0.0000   0.2271
  13.600   1.2584   0.04337   0.03848   0.0088  0.0259  1.0000  -7.8382   0.0000   0.0000   0.0000   0.2265
  13.700   1.2578   0.04430   0.03948   0.0094  0.0257  1.0000  -7.9034   0.0000   0.0000   0.0000   0.2259
  13.800   1.2570   0.04526   0.04051   0.0098  0.0255  1.0000  -7.9671   0.0000   0.0000   0.0000   0.2253
  13.900   1.2558   0.04626   0.04158   0.0102  0.0253  1.0000  -8.0268   0.0000   0.0000   0.0000   0.2248
  14.000   1.2544   0.04729   0.04268   0.0106  0.0251  1.0000  -8.0853   0.0000   0.0000   0.0000   0.2243
  14.100   1.2529   0.04836   0.04382   0.0109  0.0248  1.0000  -8.1415   0.0000   0.0000   0.0000   0.2238
  14.200   1.2512   0.04945   0.04498   0.0112  0.0246  1.0000  -8.1974   0.0000   0.0000   0.0000   0.2234
  14.300   1.2495   0.05057   0.04615   0.0114  0.0244  1.0000  -8.2532   0.0000   0.0000   0.0000   0.2231
  14.400   1.2478   0.05171   0.04735   0.0115  0.0241  1.0000  -8.3089   0.0000   0.0000   0.0000   0.2228
  14.500   1.2457   0.05290   0.04861   0.0116  0.0239  1.0000  -8.3608   0.0000   0.0000   0.0000   0.2225
  14.600   1.2435   0.05413   0.04990   0.0116  0.0236  1.0000  -8.4114   0.0000   0.0000   0.0000   0.2223
  14.700   1.2413   0.05540   0.05122   0.0115  0.0234  1.0000  -8.4614   0.0000   0.0000   0.0000   0.2221
  14.800   1.2390   0.05669   0.05256   0.0113  0.0231  1.0000  -8.5109   0.0000   0.0000   0.0000   0.2220
  14.900   1.2366   0.05802   0.05395   0.0111  0.0229  1.0000  -8.5588   0.0000   0.0000   0.0000   0.2220
  15.000   1.2343   0.05937   0.05535   0.0108  0.0226  1.0000  -8.6077   0.0000   0.0000   0.0000   0.2220


