xflr5 v6.61

 Calculated polar for: SG6041

 1 1 Reynolds number fixed          Mach number fixed         

 xtrf =   1.000 (top)        1.000 (bottom)
 Mach =   0.000     Re =     0.250 e 6     Ncrit =   9.000

  alpha     CL        CD       CDp       Cm    Top Xtr Bot Xtr   Cpmin    Chinge    XCp    
 ------- -------- --------- --------- -------- ------- ------- -------- --------- ---------
 -10.000  -0.4155   0.10411   0.10078  -0.0365  1.0000  0.0365  -1.9046   0.0000   0.0000   0.0000   0.1539
  -9.900  -0.4155   0.10294   0.09962  -0.0374  1.0000  0.0368  -1.9241   0.0000   0.0000   0.0000   0.1519
  -9.800  -0.4152   0.10177   0.09847  -0.0381  1.0000  0.0370  -1.9363   0.0000   0.0000   0.0000   0.1503
  -9.700  -0.4152   0.10053   0.09725  -0.0387  1.0000  0.0371  -1.9486   0.0000   0.0000   0.0000   0.1489
  -9.600  -0.4155   0.09924   0.09597  -0.0393  1.0000  0.0372  -1.9614   0.0000   0.0000   0.0000   0.1477
  -9.500  -0.4160   0.09790   0.09465  -0.0399  1.0000  0.0373  -1.9751   0.0000   0.0000   0.0000   0.1465
  -9.400  -0.4168   0.09652   0.09329  -0.0405  1.0000  0.0373  -1.9896   0.0000   0.0000   0.0000   0.1454
  -9.300  -0.4178   0.09511   0.09190  -0.0410  1.0000  0.0374  -2.0053   0.0000   0.0000   0.0000   0.1444
  -9.200  -0.4192   0.09367   0.09048  -0.0416  1.0000  0.0374  -2.0223   0.0000   0.0000   0.0000   0.1434
  -9.100  -0.4208   0.09221   0.08903  -0.0422  1.0000  0.0375  -2.0410   0.0000   0.0000   0.0000   0.1425
  -9.000  -0.4229   0.09072   0.08756  -0.0428  1.0000  0.0375  -2.0617   0.0000   0.0000   0.0000   0.1417
  -8.900  -0.4255   0.08919   0.08606  -0.0435  1.0000  0.0375  -2.0852   0.0000   0.0000   0.0000   0.1409
  -8.800  -0.4288   0.08763   0.08451  -0.0443  1.0000  0.0375  -2.1124   0.0000   0.0000   0.0000   0.1401
  -8.700  -0.4331   0.08602   0.08293  -0.0451  1.0000  0.0375  -2.1448   0.0000   0.0000   0.0000   0.1393
  -8.600  -0.4387   0.08446   0.08138  -0.0459  1.0000  0.0375  -2.1811   0.0000   0.0000   0.0000   0.1391
  -8.500  -0.4455   0.08319   0.08012  -0.0461  1.0000  0.0375  -2.2141   0.0000   0.0000   0.0000   0.1405
  -8.400  -0.4537   0.08219   0.07913  -0.0456  1.0000  0.0375  -2.2440   0.0000   0.0000   0.0000   0.1435
  -8.300  -0.4630   0.08142   0.07837  -0.0446  1.0000  0.0375  -2.2716   0.0000   0.0000   0.0000   0.1480
  -8.200  -0.4728   0.08079   0.07775  -0.0432  1.0000  0.0375  -2.2968   0.0000   0.0000   0.0000   0.1532
  -8.100  -0.4815   0.08008   0.07705  -0.0417  1.0000  0.0375  -2.3199   0.0000   0.0000   0.0000   0.1580
  -8.000  -0.4887   0.07917   0.07613  -0.0407  1.0000  0.0376  -2.3415   0.0000   0.0000   0.0000   0.1615
  -7.900  -0.4956   0.07824   0.07520  -0.0397  1.0000  0.0376  -2.3618   0.0000   0.0000   0.0000   0.1649
  -7.800  -0.5020   0.07731   0.07426  -0.0386  1.0000  0.0376  -2.3808   0.0000   0.0000   0.0000   0.1681
  -7.700  -0.5081   0.07636   0.07329  -0.0376  1.0000  0.0376  -2.3985   0.0000   0.0000   0.0000   0.1711
  -7.600  -0.5137   0.07538   0.07230  -0.0367  1.0000  0.0376  -2.4148   0.0000   0.0000   0.0000   0.1739
  -7.500  -0.5188   0.07438   0.07127  -0.0357  1.0000  0.0376  -2.4297   0.0000   0.0000   0.0000   0.1765
  -7.400  -0.5234   0.07335   0.07022  -0.0349  1.0000  0.0376  -2.4430   0.0000   0.0000   0.0000   0.1789
  -7.300  -0.5275   0.07229   0.06913  -0.0340  1.0000  0.0376  -2.4548   0.0000   0.0000   0.0000   0.1811
  -7.200  -0.5311   0.07120   0.06801  -0.0331  1.0000  0.0376  -2.4649   0.0000   0.0000   0.0000   0.1832
  -7.100  -0.5343   0.07010   0.06686  -0.0323  1.0000  0.0377  -2.4734   0.0000   0.0000   0.0000   0.1852
  -7.000  -0.5370   0.06896   0.06569  -0.0315  1.0000  0.0377  -2.4802   0.0000   0.0000   0.0000   0.1871
  -6.900  -0.5584   0.06259   0.05926  -0.0318  0.9998  0.0385  -2.6841   0.0000   0.0000   0.0000   0.1889
  -6.800  -0.5569   0.05899   0.05561  -0.0334  0.9983  0.0393  -2.7002   0.0000   0.0000   0.0000   0.1859
  -6.700  -0.5507   0.05693   0.05353  -0.0345  0.9969  0.0398  -2.6599   0.0000   0.0000   0.0000   0.1832
  -6.600  -0.5425   0.05547   0.05206  -0.0353  0.9955  0.0403  -2.5948   0.0000   0.0000   0.0000   0.1808
  -6.500  -0.5341   0.05409   0.05066  -0.0362  0.9942  0.0408  -2.5314   0.0000   0.0000   0.0000   0.1781
  -6.400  -0.5253   0.05275   0.04929  -0.0372  0.9929  0.0413  -2.4707   0.0000   0.0000   0.0000   0.1752
  -6.300  -0.5159   0.05140   0.04790  -0.0382  0.9917  0.0419  -2.4124   0.0000   0.0000   0.0000   0.1719
  -6.200  -0.5059   0.05003   0.04648  -0.0394  0.9906  0.0426  -2.3567   0.0000   0.0000   0.0000   0.1682
  -6.100  -0.4993   0.04879   0.04517  -0.0397  0.9887  0.0432  -2.3244   0.0000   0.0000   0.0000   0.1666
  -6.000  -0.4916   0.04752   0.04384  -0.0401  0.9867  0.0439  -2.2994   0.0000   0.0000   0.0000   0.1645
  -5.900  -0.4833   0.04622   0.04246  -0.0406  0.9848  0.0447  -2.2773   0.0000   0.0000   0.0000   0.1620
  -5.800  -0.4744   0.04489   0.04105  -0.0412  0.9828  0.0457  -2.2585   0.0000   0.0000   0.0000   0.1592
  -5.700  -0.4649   0.04354   0.03960  -0.0418  0.9810  0.0467  -2.2430   0.0000   0.0000   0.0000   0.1561
  -5.600  -0.4548   0.04220   0.03815  -0.0424  0.9793  0.0478  -2.2307   0.0000   0.0000   0.0000   0.1527
  -5.500  -0.4438   0.04091   0.03672  -0.0431  0.9778  0.0491  -2.2210   0.0000   0.0000   0.0000   0.1489
  -5.400  -0.4317   0.03977   0.03543  -0.0437  0.9764  0.0505  -2.2102   0.0000   0.0000   0.0000   0.1447
  -5.100  -0.3978   0.02887   0.02306  -0.0429  0.9729  0.0257  -2.8857   0.0000   0.0000   0.0000   0.1374
  -5.000  -0.3862   0.02703   0.02113  -0.0434  0.9723  0.0243  -2.9014   0.0000   0.0000   0.0000   0.1328
  -4.900  -0.3741   0.02532   0.01921  -0.0438  0.9716  0.0235  -2.9288   0.0000   0.0000   0.0000   0.1280
  -4.800  -0.3695   0.02429   0.01804  -0.0426  0.9689  0.0231  -2.9398   0.0000   0.0000   0.0000   0.1299
  -4.700  -0.3616   0.02324   0.01681  -0.0419  0.9668  0.0227  -2.9476   0.0000   0.0000   0.0000   0.1292
  -4.600  -0.3520   0.02229   0.01571  -0.0416  0.9650  0.0224  -2.9494   0.0000   0.0000   0.0000   0.1271
  -4.500  -0.3413   0.02141   0.01470  -0.0414  0.9634  0.0222  -2.9450   0.0000   0.0000   0.0000   0.1239
  -4.400  -0.3299   0.02062   0.01379  -0.0413  0.9619  0.0221  -2.9336   0.0000   0.0000   0.0000   0.1198
  -4.300  -0.3179   0.01991   0.01297  -0.0414  0.9604  0.0221  -2.9156   0.0000   0.0000   0.0000   0.1148
  -4.200  -0.3054   0.01927   0.01224  -0.0415  0.9591  0.0222  -2.8918   0.0000   0.0000   0.0000   0.1089
  -4.100  -0.2925   0.01869   0.01159  -0.0418  0.9578  0.0225  -2.8631   0.0000   0.0000   0.0000   0.1020
  -4.000  -0.2792   0.01818   0.01101  -0.0421  0.9566  0.0230  -2.8308   0.0000   0.0000   0.0000   0.0939
  -3.900  -0.2656   0.01772   0.01050  -0.0425  0.9554  0.0237  -2.7956   0.0000   0.0000   0.0000   0.0846
  -3.800  -0.2516   0.01735   0.01008  -0.0430  0.9543  0.0246  -2.7557   0.0000   0.0000   0.0000   0.0736
  -3.700  -0.2379   0.01686   0.00955  -0.0434  0.9533  0.0257  -2.7316   0.0000   0.0000   0.0000   0.0618
  -3.600  -0.2256   0.01605   0.00873  -0.0438  0.9523  0.0290  -2.7324   0.0000   0.0000   0.0000   0.0504
  -3.500  -0.2106   0.01583   0.00853  -0.0445  0.9513  0.0327  -2.6716   0.0000   0.0000   0.0000   0.0326
  -3.400  -0.1945   0.01578   0.00846  -0.0455  0.9505  0.0374  -2.5958   0.0000   0.0000   0.0000   0.0100
  -3.300  -0.1804   0.01529   0.00805  -0.0463  0.9496  0.0485  -2.5400   0.0000   0.0000   0.0000  -0.0128
  -3.200  -0.1675   0.01504   0.00779  -0.0466  0.9483  0.0587  -2.4809   0.0000   0.0000   0.0000  -0.0347
  -3.100  -0.1667   0.01482   0.00761  -0.0446  0.9439  0.0665  -2.4441   0.0000   0.0000   0.0000  -0.0240
  -3.000  -0.1565   0.01476   0.00753  -0.0444  0.9413  0.0753  -2.3634   0.0000   0.0000   0.0000  -0.0403
  -2.900  -0.1461   0.01437   0.00721  -0.0443  0.9391  0.0888  -2.2933   0.0000   0.0000   0.0000  -0.0602
  -2.800  -0.1332   0.01424   0.00706  -0.0447  0.9372  0.0987  -2.1992   0.0000   0.0000   0.0000  -0.0924
  -2.700  -0.1207   0.01393   0.00685  -0.0451  0.9355  0.1185  -2.1080   0.0000   0.0000   0.0000  -0.1311
  -2.600  -0.1078   0.01361   0.00668  -0.0456  0.9340  0.1505  -2.0142   0.0000   0.0000   0.0000  -0.1809
  -2.500  -0.0962   0.01304   0.00652  -0.0461  0.9325  0.2382  -1.9248   0.0000   0.0000   0.0000  -0.2375
  -2.400  -0.0870   0.01218   0.00638  -0.0463  0.9310  0.4131  -1.8438   0.0000   0.0000   0.0000  -0.2906
  -2.300  -0.0791   0.01148   0.00644  -0.0457  0.9296  0.5926  -1.7645   0.0000   0.0000   0.0000  -0.3370
  -2.200  -0.0670   0.01129   0.00652  -0.0456  0.9285  0.6807  -1.6677   0.0000   0.0000   0.0000  -0.4408
  -2.100  -0.0530   0.01121   0.00655  -0.0458  0.9275  0.7222  -1.5646   0.0000   0.0000   0.0000  -0.6267
  -2.000  -0.0379   0.01117   0.00654  -0.0464  0.9267  0.7491  -1.4585   0.0000   0.0000   0.0000  -0.9884
  -1.900  -0.0222   0.01113   0.00654  -0.0470  0.9260  0.7679  -1.3512   0.0000   0.0000   0.0000  -1.8938
  -1.800  -0.0240   0.01117   0.00656  -0.0443  0.9203  0.7778  -1.3143   0.0000   0.0000   0.0000  -1.6208
  -1.700  -0.0154   0.01114   0.00655  -0.0436  0.9172  0.7897  -1.2343   0.0000   0.0000   0.0000  -2.6223
  -1.600  -0.0037   0.01112   0.00650  -0.0435  0.9148  0.8024  -1.1473   0.0000   0.0000   0.0000  -11.7275
  -1.500   0.0088   0.01107   0.00648  -0.0435  0.9128  0.8138  -1.0584   0.0000   0.0000   0.0000   5.2648
  -1.400   0.0223   0.01104   0.00643  -0.0437  0.9111  0.8271  -0.9674   0.0000   0.0000   0.0000   2.2317
  -1.300   0.0362   0.01098   0.00640  -0.0440  0.9097  0.8381  -0.8762   0.0000   0.0000   0.0000   1.4733
  -1.200   0.0510   0.01093   0.00634  -0.0445  0.9084  0.8492  -0.7846   0.0000   0.0000   0.0000   1.1280
  -1.100   0.0664   0.01087   0.00628  -0.0450  0.9074  0.8585  -0.7065   0.0000   0.0000   0.0000   0.9323
  -1.000   0.0818   0.01082   0.00623  -0.0455  0.9064  0.8682  -0.6353   0.0000   0.0000   0.0000   0.8097
  -0.900   0.0972   0.01076   0.00615  -0.0462  0.9054  0.8771  -0.5659   0.0000   0.0000   0.0000   0.7271
  -0.800   0.1126   0.01070   0.00611  -0.0466  0.9044  0.8860  -0.4972   0.0000   0.0000   0.0000   0.6653
  -0.700   0.1265   0.01066   0.00606  -0.0467  0.9034  0.8981  -0.4431   0.0000   0.0000   0.0000   0.6203
  -0.600   0.1420   0.01063   0.00604  -0.0470  0.9025  0.9100  -0.4046   0.0000   0.0000   0.0000   0.5815
  -0.500   0.1472   0.01067   0.00608  -0.0454  0.8987  0.9224  -0.3930   0.0000   0.0000   0.0000   0.5586
  -0.400   0.1602   0.01072   0.00614  -0.0453  0.8956  0.9320  -0.4035   0.0000   0.0000   0.0000   0.5330
  -0.300   0.1760   0.01073   0.00614  -0.0459  0.8932  0.9393  -0.4167   0.0000   0.0000   0.0000   0.5108
  -0.200   0.1905   0.01069   0.00609  -0.0464  0.8908  0.9455  -0.4301   0.0000   0.0000   0.0000   0.4931
  -0.100   0.2082   0.01064   0.00601  -0.0475  0.8889  0.9492  -0.4456   0.0000   0.0000   0.0000   0.4778
   0.000   0.2286   0.01057   0.00592  -0.0493  0.8874  0.9509  -0.4627   0.0000   0.0000   0.0000   0.4648
   0.100   0.2483   0.01048   0.00582  -0.0509  0.8858  0.9525  -0.4808   0.0000   0.0000   0.0000   0.4540
   0.200   0.2680   0.01039   0.00570  -0.0525  0.8842  0.9538  -0.4993   0.0000   0.0000   0.0000   0.4448
   0.300   0.2877   0.01028   0.00557  -0.0541  0.8825  0.9550  -0.5180   0.0000   0.0000   0.0000   0.4368
   0.400   0.3072   0.01018   0.00544  -0.0556  0.8808  0.9561  -0.5387   0.0000   0.0000   0.0000   0.4298
   0.500   0.3265   0.01007   0.00531  -0.0571  0.8790  0.9571  -0.5594   0.0000   0.0000   0.0000   0.4237
   0.600   0.3441   0.01000   0.00523  -0.0584  0.8765  0.9586  -0.5804   0.0000   0.0000   0.0000   0.4182
   0.700   0.3571   0.00999   0.00522  -0.0587  0.8718  0.9615  -0.5987   0.0000   0.0000   0.0000   0.4130
   0.800   0.3716   0.00993   0.00515  -0.0594  0.8677  0.9640  -0.6185   0.0000   0.0000   0.0000   0.4082
   0.900   0.3869   0.00985   0.00506  -0.0601  0.8640  0.9664  -0.6390   0.0000   0.0000   0.0000   0.4037
   1.000   0.4021   0.00975   0.00494  -0.0608  0.8605  0.9686  -0.6597   0.0000   0.0000   0.0000   0.3994
   1.100   0.4168   0.00964   0.00482  -0.0613  0.8571  0.9708  -0.6801   0.0000   0.0000   0.0000   0.3953
   1.200   0.4349   0.00954   0.00469  -0.0626  0.8540  0.9717  -0.7035   0.0000   0.0000   0.0000   0.3920
   1.300   0.4507   0.00949   0.00466  -0.0636  0.8488  0.9734  -0.7248   0.0000   0.0000   0.0000   0.3890
   1.400   0.4667   0.00943   0.00461  -0.0646  0.8434  0.9751  -0.7483   0.0000   0.0000   0.0000   0.3862
   1.500   0.4833   0.00935   0.00452  -0.0656  0.8385  0.9768  -0.7741   0.0000   0.0000   0.0000   0.3836
   1.600   0.4999   0.00926   0.00441  -0.0666  0.8342  0.9785  -0.8002   0.0000   0.0000   0.0000   0.3810
   1.700   0.5169   0.00917   0.00429  -0.0677  0.8300  0.9799  -0.8289   0.0000   0.0000   0.0000   0.3786
   1.800   0.5305   0.00914   0.00428  -0.0682  0.8234  0.9829  -0.8564   0.0000   0.0000   0.0000   0.3762
   1.900   0.5445   0.00909   0.00423  -0.0688  0.8166  0.9856  -0.8845   0.0000   0.0000   0.0000   0.3739
   2.000   0.5592   0.00903   0.00414  -0.0694  0.8105  0.9879  -0.9137   0.0000   0.0000   0.0000   0.3716
   2.100   0.5742   0.00897   0.00405  -0.0701  0.8045  0.9900  -0.9435   0.0000   0.0000   0.0000   0.3695
   2.200   0.5891   0.00892   0.00403  -0.0710  0.7955  0.9925  -0.9732   0.0000   0.0000   0.0000   0.3677
   2.300   0.6051   0.00885   0.00394  -0.0719  0.7873  0.9946  -1.0046   0.0000   0.0000   0.0000   0.3661
   2.400   0.6209   0.00879   0.00385  -0.0728  0.7795  0.9967  -1.0360   0.0000   0.0000   0.0000   0.3644
   2.500   0.6360   0.00876   0.00382  -0.0737  0.7695  0.9992  -1.0694   0.0000   0.0000   0.0000   0.3629
   2.600   0.6472   0.00872   0.00378  -0.0737  0.7609  1.0000  -1.1001   0.0000   0.0000   0.0000   0.3609
   2.700   0.6531   0.00869   0.00374  -0.0727  0.7523  1.0000  -1.1234   0.0000   0.0000   0.0000   0.3582
   2.800   0.6589   0.00867   0.00370  -0.0717  0.7429  1.0000  -1.1467   0.0000   0.0000   0.0000   0.3556
   2.900   0.6661   0.00865   0.00363  -0.0708  0.7337  1.0000  -1.1721   0.0000   0.0000   0.0000   0.3531
   3.000   0.6710   0.00865   0.00362  -0.0697  0.7227  1.0000  -1.1943   0.0000   0.0000   0.0000   0.3504
   3.100   0.6775   0.00866   0.00356  -0.0687  0.7115  1.0000  -1.2192   0.0000   0.0000   0.0000   0.3479
   3.200   0.6826   0.00868   0.00356  -0.0675  0.6990  1.0000  -1.2420   0.0000   0.0000   0.0000   0.3454
   3.300   0.6888   0.00872   0.00352  -0.0665  0.6860  1.0000  -1.2666   0.0000   0.0000   0.0000   0.3429
   3.400   0.6942   0.00876   0.00352  -0.0653  0.6716  1.0000  -1.2900   0.0000   0.0000   0.0000   0.3404
   3.500   0.7002   0.00882   0.00352  -0.0642  0.6571  1.0000  -1.3144   0.0000   0.0000   0.0000   0.3379
   3.600   0.7060   0.00890   0.00352  -0.0631  0.6412  1.0000  -1.3389   0.0000   0.0000   0.0000   0.3355
   3.700   0.7120   0.00898   0.00354  -0.0621  0.6248  1.0000  -1.3636   0.0000   0.0000   0.0000   0.3332
   3.800   0.7181   0.00909   0.00356  -0.0610  0.6081  1.0000  -1.3886   0.0000   0.0000   0.0000   0.3309
   3.900   0.7239   0.00922   0.00359  -0.0599  0.5901  1.0000  -1.4134   0.0000   0.0000   0.0000   0.3286
   4.000   0.7299   0.00935   0.00363  -0.0589  0.5707  1.0000  -1.4384   0.0000   0.0000   0.0000   0.3264
   4.100   0.7359   0.00949   0.00369  -0.0578  0.5513  1.0000  -1.4635   0.0000   0.0000   0.0000   0.3243
   4.200   0.7418   0.00965   0.00375  -0.0568  0.5320  1.0000  -1.4886   0.0000   0.0000   0.0000   0.3221
   4.300   0.7477   0.00982   0.00386  -0.0557  0.5129  1.0000  -1.5138   0.0000   0.0000   0.0000   0.3200
   4.400   0.7536   0.01000   0.00394  -0.0547  0.4941  1.0000  -1.5391   0.0000   0.0000   0.0000   0.3180
   4.500   0.7600   0.01017   0.00402  -0.0538  0.4750  1.0000  -1.5652   0.0000   0.0000   0.0000   0.3161
   4.600   0.7664   0.01035   0.00412  -0.0529  0.4558  1.0000  -1.5922   0.0000   0.0000   0.0000   0.3142
   4.700   0.7727   0.01054   0.00422  -0.0520  0.4365  1.0000  -1.6232   0.0000   0.0000   0.0000   0.3123
   4.800   0.7789   0.01075   0.00432  -0.0510  0.4172  1.0000  -1.6591   0.0000   0.0000   0.0000   0.3105
   4.900   0.7849   0.01097   0.00444  -0.0501  0.3977  1.0000  -1.6954   0.0000   0.0000   0.0000   0.3087
   5.000   0.7915   0.01118   0.00456  -0.0493  0.3778  1.0000  -1.7329   0.0000   0.0000   0.0000   0.3071
   5.100   0.7982   0.01139   0.00468  -0.0485  0.3588  1.0000  -1.7710   0.0000   0.0000   0.0000   0.3055
   5.200   0.8049   0.01161   0.00481  -0.0477  0.3407  1.0000  -1.8092   0.0000   0.0000   0.0000   0.3039
   5.300   0.8115   0.01184   0.00495  -0.0469  0.3235  1.0000  -1.8472   0.0000   0.0000   0.0000   0.3023
   5.400   0.8185   0.01206   0.00508  -0.0462  0.3066  1.0000  -1.8864   0.0000   0.0000   0.0000   0.3009
   5.500   0.8259   0.01226   0.00522  -0.0456  0.2913  1.0000  -1.9268   0.0000   0.0000   0.0000   0.2995
   5.600   0.8327   0.01250   0.00537  -0.0448  0.2770  1.0000  -1.9688   0.0000   0.0000   0.0000   0.2981
   5.700   0.8404   0.01270   0.00552  -0.0443  0.2629  1.0000  -2.0165   0.0000   0.0000   0.0000   0.2968
   5.800   0.8477   0.01292   0.00568  -0.0436  0.2502  1.0000  -2.0635   0.0000   0.0000   0.0000   0.2955
   5.900   0.8551   0.01314   0.00587  -0.0430  0.2375  1.0000  -2.1112   0.0000   0.0000   0.0000   0.2942
   6.000   0.8627   0.01336   0.00604  -0.0424  0.2263  1.0000  -2.1593   0.0000   0.0000   0.0000   0.2930
   6.100   0.8702   0.01358   0.00621  -0.0418  0.2152  1.0000  -2.2078   0.0000   0.0000   0.0000   0.2918
   6.200   0.8775   0.01382   0.00639  -0.0412  0.2053  1.0000  -2.2557   0.0000   0.0000   0.0000   0.2906
   6.300   0.8856   0.01401   0.00656  -0.0407  0.1958  1.0000  -2.3061   0.0000   0.0000   0.0000   0.2895
   6.400   0.8924   0.01429   0.00677  -0.0400  0.1866  1.0000  -2.3530   0.0000   0.0000   0.0000   0.2882
   6.500   0.9007   0.01448   0.00696  -0.0395  0.1790  1.0000  -2.4041   0.0000   0.0000   0.0000   0.2872
   6.600   0.9084   0.01469   0.00714  -0.0390  0.1711  1.0000  -2.4544   0.0000   0.0000   0.0000   0.2861
   6.700   0.9148   0.01501   0.00738  -0.0382  0.1631  1.0000  -2.5007   0.0000   0.0000   0.0000   0.2849
   6.800   0.9233   0.01519   0.00757  -0.0378  0.1569  1.0000  -2.5532   0.0000   0.0000   0.0000   0.2839
   6.900   0.9315   0.01538   0.00776  -0.0373  0.1503  1.0000  -2.6054   0.0000   0.0000   0.0000   0.2829
   7.000   0.9384   0.01566   0.00797  -0.0367  0.1437  1.0000  -2.6544   0.0000   0.0000   0.0000   0.2818
   7.100   0.9451   0.01598   0.00825  -0.0360  0.1376  1.0000  -2.7013   0.0000   0.0000   0.0000   0.2807
   7.200   0.9539   0.01612   0.00844  -0.0356  0.1330  1.0000  -2.7563   0.0000   0.0000   0.0000   0.2798
   7.300   0.9620   0.01631   0.00863  -0.0351  0.1279  1.0000  -2.8093   0.0000   0.0000   0.0000   0.2789
   7.400   0.9690   0.01658   0.00885  -0.0345  0.1229  1.0000  -2.8597   0.0000   0.0000   0.0000   0.2779
   7.500   0.9741   0.01706   0.00930  -0.0335  0.1169  1.0000  -2.9048   0.0000   0.0000   0.0000   0.2766
   7.600   0.9831   0.01717   0.00946  -0.0332  0.1142  1.0000  -2.9703   0.0000   0.0000   0.0000   0.2758
   7.700   0.9916   0.01733   0.00966  -0.0328  0.1107  1.0000  -3.0342   0.0000   0.0000   0.0000   0.2750
   7.800   0.9996   0.01752   0.00987  -0.0323  0.1072  1.0000  -3.0969   0.0000   0.0000   0.0000   0.2741
   7.900   1.0069   0.01777   0.01011  -0.0317  0.1038  1.0000  -3.1574   0.0000   0.0000   0.0000   0.2732
   8.000   1.0134   0.01809   0.01040  -0.0310  0.1004  1.0000  -3.2143   0.0000   0.0000   0.0000   0.2722
   8.100   1.0183   0.01866   0.01093  -0.0301  0.0960  1.0000  -3.2614   0.0000   0.0000   0.0000   0.2710
   8.200   1.0262   0.01889   0.01120  -0.0295  0.0940  1.0000  -3.3234   0.0000   0.0000   0.0000   0.2702
   8.300   1.0346   0.01903   0.01139  -0.0291  0.0919  1.0000  -3.3890   0.0000   0.0000   0.0000   0.2694
   8.400   1.0426   0.01921   0.01161  -0.0286  0.0895  1.0000  -3.4535   0.0000   0.0000   0.0000   0.2686
   8.500   1.0503   0.01940   0.01183  -0.0281  0.0868  1.0000  -3.5175   0.0000   0.0000   0.0000   0.2678
   8.600   1.0577   0.01960   0.01204  -0.0276  0.0842  1.0000  -3.5814   0.0000   0.0000   0.0000   0.2669
   8.700   1.0643   0.01986   0.01229  -0.0269  0.0815  1.0000  -3.6425   0.0000   0.0000   0.0000   0.2660
   8.800   1.0698   0.02025   0.01266  -0.0261  0.0787  1.0000  -3.6969   0.0000   0.0000   0.0000   0.2650
   8.900   1.0743   0.02111   0.01350  -0.0252  0.0749  1.0000  -3.7372   0.0000   0.0000   0.0000   0.2640
   9.000   1.0818   0.02127   0.01371  -0.0246  0.0738  1.0000  -3.8082   0.0000   0.0000   0.0000   0.2631
   9.100   1.0890   0.02143   0.01393  -0.0240  0.0725  1.0000  -3.8803   0.0000   0.0000   0.0000   0.2623
   9.200   1.0960   0.02164   0.01420  -0.0233  0.0707  1.0000  -3.9505   0.0000   0.0000   0.0000   0.2614
   9.300   1.1026   0.02189   0.01451  -0.0226  0.0688  1.0000  -4.0193   0.0000   0.0000   0.0000   0.2605
   9.400   1.1089   0.02214   0.01480  -0.0219  0.0668  1.0000  -4.0871   0.0000   0.0000   0.0000   0.2596
   9.500   1.1149   0.02241   0.01509  -0.0211  0.0649  1.0000  -4.1545   0.0000   0.0000   0.0000   0.2587
   9.600   1.1204   0.02270   0.01540  -0.0203  0.0630  1.0000  -4.2207   0.0000   0.0000   0.0000   0.2577
   9.700   1.1255   0.02309   0.01578  -0.0194  0.0611  1.0000  -4.2829   0.0000   0.0000   0.0000   0.2567
   9.800   1.1302   0.02378   0.01646  -0.0186  0.0588  1.0000  -4.3366   0.0000   0.0000   0.0000   0.2558
   9.900   1.1374   0.02514   0.01788  -0.0184  0.0558  1.0000  -4.3818   0.0000   0.0000   0.0000   0.2554
  10.000   1.1433   0.02529   0.01809  -0.0175  0.0552  1.0000  -4.4510   0.0000   0.0000   0.0000   0.2544
  10.100   1.1492   0.02550   0.01834  -0.0168  0.0542  1.0000  -4.5194   0.0000   0.0000   0.0000   0.2535
  10.200   1.1550   0.02575   0.01865  -0.0160  0.0531  1.0000  -4.5861   0.0000   0.0000   0.0000   0.2526
  10.300   1.1606   0.02604   0.01899  -0.0152  0.0519  1.0000  -4.6761   0.0000   0.0000   0.0000   0.2518
  10.400   1.1661   0.02635   0.01936  -0.0144  0.0506  1.0000  -4.7659   0.0000   0.0000   0.0000   0.2509
  10.500   1.1714   0.02670   0.01974  -0.0137  0.0493  1.0000  -4.8685   0.0000   0.0000   0.0000   0.2500
  10.600   1.1766   0.02707   0.02015  -0.0129  0.0482  1.0000  -4.9725   0.0000   0.0000   0.0000   0.2492
  10.700   1.1817   0.02747   0.02058  -0.0121  0.0472  1.0000  -5.0760   0.0000   0.0000   0.0000   0.2484
  10.800   1.1865   0.02787   0.02102  -0.0113  0.0462  1.0000  -5.1792   0.0000   0.0000   0.0000   0.2475
  10.900   1.1911   0.02829   0.02147  -0.0105  0.0453  1.0000  -5.2815   0.0000   0.0000   0.0000   0.2467
  11.000   1.1955   0.02877   0.02198  -0.0097  0.0444  1.0000  -5.3816   0.0000   0.0000   0.0000   0.2458
  11.100   1.1997   0.02936   0.02260  -0.0089  0.0435  1.0000  -5.4788   0.0000   0.0000   0.0000   0.2450
  11.200   1.2041   0.03018   0.02345  -0.0083  0.0424  1.0000  -5.5710   0.0000   0.0000   0.0000   0.2442
  11.300   1.2088   0.03152   0.02488  -0.0077  0.0412  1.0000  -5.6510   0.0000   0.0000   0.0000   0.2437
  11.400   1.2126   0.03431   0.02789  -0.0075  0.0398  1.0000  -5.6837   0.0000   0.0000   0.0000   0.2434
  11.500   1.2160   0.03465   0.02830  -0.0066  0.0396  1.0000  -5.7798   0.0000   0.0000   0.0000   0.2424
  11.600   1.2192   0.03502   0.02873  -0.0056  0.0393  1.0000  -5.8748   0.0000   0.0000   0.0000   0.2415
  11.700   1.2222   0.03541   0.02919  -0.0047  0.0390  1.0000  -5.9689   0.0000   0.0000   0.0000   0.2406
  11.800   1.2251   0.03584   0.02968  -0.0038  0.0387  1.0000  -6.0618   0.0000   0.0000   0.0000   0.2396
  11.900   1.2277   0.03630   0.03026  -0.0028  0.0382  1.0000  -6.1549   0.0000   0.0000   0.0000   0.2387
  12.000   1.2300   0.03680   0.03083  -0.0019  0.0378  1.0000  -6.2446   0.0000   0.0000   0.0000   0.2378
  12.100   1.2322   0.03734   0.03144  -0.0010  0.0373  1.0000  -6.3319   0.0000   0.0000   0.0000   0.2370
  12.200   1.2340   0.03792   0.03209  -0.0001  0.0368  1.0000  -6.4164   0.0000   0.0000   0.0000   0.2361
  12.300   1.2356   0.03854   0.03278   0.0007  0.0362  1.0000  -6.4983   0.0000   0.0000   0.0000   0.2352
  12.400   1.2369   0.03920   0.03351   0.0016  0.0357  1.0000  -6.5776   0.0000   0.0000   0.0000   0.2344
  12.500   1.2378   0.03992   0.03430   0.0024  0.0353  1.0000  -6.6524   0.0000   0.0000   0.0000   0.2335
  12.600   1.2380   0.04072   0.03518   0.0033  0.0349  1.0000  -6.7192   0.0000   0.0000   0.0000   0.2327
  12.700   1.2379   0.04156   0.03610   0.0042  0.0345  1.0000  -6.7833   0.0000   0.0000   0.0000   0.2318
  12.800   1.2375   0.04243   0.03705   0.0050  0.0341  1.0000  -6.8443   0.0000   0.0000   0.0000   0.2310
  12.900   1.2367   0.04332   0.03802   0.0058  0.0338  1.0000  -6.9027   0.0000   0.0000   0.0000   0.2302
  13.000   1.2356   0.04424   0.03902   0.0066  0.0335  1.0000  -6.9589   0.0000   0.0000   0.0000   0.2294
  13.100   1.2342   0.04520   0.04005   0.0073  0.0332  1.0000  -7.0118   0.0000   0.0000   0.0000   0.2286
  13.200   1.2326   0.04618   0.04110   0.0080  0.0329  1.0000  -7.0629   0.0000   0.0000   0.0000   0.2279
  13.300   1.2306   0.04720   0.04219   0.0086  0.0326  1.0000  -7.1112   0.0000   0.0000   0.0000   0.2272
  13.400   1.2284   0.04825   0.04332   0.0092  0.0323  1.0000  -7.1569   0.0000   0.0000   0.0000   0.2265
  13.500   1.2260   0.04935   0.04449   0.0098  0.0321  1.0000  -7.2002   0.0000   0.0000   0.0000   0.2259
  13.600   1.2231   0.05049   0.04570   0.0103  0.0318  1.0000  -7.2397   0.0000   0.0000   0.0000   0.2253
  13.700   1.2201   0.05168   0.04695   0.0107  0.0316  1.0000  -7.2765   0.0000   0.0000   0.0000   0.2247
  13.800   1.2166   0.05292   0.04827   0.0110  0.0314  1.0000  -7.3094   0.0000   0.0000   0.0000   0.2243
  13.900   1.2130   0.05423   0.04965   0.0113  0.0312  1.0000  -7.3389   0.0000   0.0000   0.0000   0.2238
  14.000   1.2089   0.05561   0.05110   0.0114  0.0311  1.0000  -7.3642   0.0000   0.0000   0.0000   0.2235
  14.100   1.2045   0.05707   0.05263   0.0115  0.0309  1.0000  -7.3842   0.0000   0.0000   0.0000   0.2232
  14.200   1.1997   0.05862   0.05424   0.0115  0.0307  1.0000  -7.3994   0.0000   0.0000   0.0000   0.2230
  14.300   1.1943   0.06026   0.05596   0.0114  0.0306  1.0000  -7.4074   0.0000   0.0000   0.0000   0.2228
  14.400   1.1885   0.06201   0.05778   0.0112  0.0305  1.0000  -7.4087   0.0000   0.0000   0.0000   0.2228
  14.500   1.1821   0.06388   0.05973   0.0108  0.0304  1.0000  -7.4030   0.0000   0.0000   0.0000   0.2228
  14.600   1.1752   0.06589   0.06182   0.0103  0.0303  1.0000  -7.3887   0.0000   0.0000   0.0000   0.2230
  14.700   1.1676   0.06807   0.06408   0.0096  0.0303  1.0000  -7.3644   0.0000   0.0000   0.0000   0.2233
  14.800   1.1592   0.07044   0.06653   0.0087  0.0303  1.0000  -7.3289   0.0000   0.0000   0.0000   0.2238
  14.900   1.1499   0.07304   0.06922   0.0076  0.0303  1.0000  -7.2794   0.0000   0.0000   0.0000   0.2245
  15.000   1.1394   0.07595   0.07222   0.0063  0.0303  1.0000  -7.2113   0.0000   0.0000   0.0000   0.2255


