xflr5 v6.61

 Calculated polar for: SG6041

 1 1 Reynolds number fixed          Mach number fixed         

 xtrf =   1.000 (top)        1.000 (bottom)
 Mach =   0.000     Re =     0.425 e 6     Ncrit =   9.000

  alpha     CL        CD       CDp       Cm    Top Xtr Bot Xtr   Cpmin    Chinge    XCp    
 ------- -------- --------- --------- -------- ------- ------- -------- --------- ---------
 -10.000  -0.4210   0.10005   0.09748  -0.0341  1.0000  0.0207  -2.0397   0.0000   0.0000   0.0000   0.1606
  -9.900  -0.4210   0.09872   0.09616  -0.0345  1.0000  0.0210  -2.0410   0.0000   0.0000   0.0000   0.1599
  -9.800  -0.4212   0.09735   0.09481  -0.0348  1.0000  0.0214  -2.0462   0.0000   0.0000   0.0000   0.1592
  -9.700  -0.4217   0.09596   0.09342  -0.0352  1.0000  0.0217  -2.0552   0.0000   0.0000   0.0000   0.1584
  -9.600  -0.4223   0.09453   0.09201  -0.0357  1.0000  0.0221  -2.0678   0.0000   0.0000   0.0000   0.1576
  -9.500  -0.4233   0.09307   0.09056  -0.0361  1.0000  0.0224  -2.0845   0.0000   0.0000   0.0000   0.1568
  -9.400  -0.4244   0.09159   0.08909  -0.0367  1.0000  0.0227  -2.1049   0.0000   0.0000   0.0000   0.1560
  -9.300  -0.4258   0.09007   0.08759  -0.0372  1.0000  0.0231  -2.1297   0.0000   0.0000   0.0000   0.1551
  -9.200  -0.4274   0.08854   0.08607  -0.0378  1.0000  0.0234  -2.1580   0.0000   0.0000   0.0000   0.1541
  -9.100  -0.4290   0.08702   0.08457  -0.0385  1.0000  0.0237  -2.1888   0.0000   0.0000   0.0000   0.1531
  -9.000  -0.4309   0.08550   0.08307  -0.0392  1.0000  0.0240  -2.2230   0.0000   0.0000   0.0000   0.1519
  -8.900  -0.4324   0.08409   0.08168  -0.0398  1.0000  0.0243  -2.2511   0.0000   0.0000   0.0000   0.1509
  -8.800  -0.4338   0.08279   0.08039  -0.0404  1.0000  0.0246  -2.2717   0.0000   0.0000   0.0000   0.1501
  -8.700  -0.4362   0.08143   0.07905  -0.0408  1.0000  0.0247  -2.2951   0.0000   0.0000   0.0000   0.1496
  -8.600  -0.4399   0.08002   0.07767  -0.0412  1.0000  0.0248  -2.3224   0.0000   0.0000   0.0000   0.1497
  -8.500  -0.4451   0.07859   0.07625  -0.0416  1.0000  0.0248  -2.3544   0.0000   0.0000   0.0000   0.1502
  -8.400  -0.4522   0.07714   0.07483  -0.0418  1.0000  0.0248  -2.3921   0.0000   0.0000   0.0000   0.1514
  -8.300  -0.4621   0.07575   0.07347  -0.0417  1.0000  0.0247  -2.4356   0.0000   0.0000   0.0000   0.1539
  -8.200  -0.4751   0.07459   0.07233  -0.0408  1.0000  0.0245  -2.4792   0.0000   0.0000   0.0000   0.1584
  -8.100  -0.4911   0.07375   0.07152  -0.0390  1.0000  0.0241  -2.5187   0.0000   0.0000   0.0000   0.1651
  -8.000  -0.5049   0.07326   0.07104  -0.0369  1.0000  0.0238  -2.5404   0.0000   0.0000   0.0000   0.1716
  -7.900  -0.5121   0.07191   0.06968  -0.0369  0.9995  0.0238  -2.5756   0.0000   0.0000   0.0000   0.1728
  -7.800  -0.5009   0.06915   0.06685  -0.0414  0.9976  0.0246  -2.6182   0.0000   0.0000   0.0000   0.1622
  -7.700  -0.4913   0.06687   0.06448  -0.0447  0.9955  0.0249  -2.6385   0.0000   0.0000   0.0000   0.1538
  -7.600  -0.4847   0.06461   0.06214  -0.0473  0.9937  0.0250  -2.6589   0.0000   0.0000   0.0000   0.1472
  -7.500  -0.4784   0.06238   0.05983  -0.0496  0.9921  0.0251  -2.6753   0.0000   0.0000   0.0000   0.1411
  -7.400  -0.4717   0.06019   0.05754  -0.0518  0.9908  0.0252  -2.6865   0.0000   0.0000   0.0000   0.1350
  -7.300  -0.4681   0.05836   0.05563  -0.0527  0.9888  0.0252  -2.6943   0.0000   0.0000   0.0000   0.1322
  -7.200  -0.4642   0.05659   0.05378  -0.0535  0.9864  0.0252  -2.6982   0.0000   0.0000   0.0000   0.1295
  -7.100  -0.4593   0.05480   0.05190  -0.0544  0.9842  0.0252  -2.6975   0.0000   0.0000   0.0000   0.1263
  -7.000  -0.4535   0.05302   0.05002  -0.0553  0.9821  0.0253  -2.6926   0.0000   0.0000   0.0000   0.1228
  -6.900  -0.4677   0.04480   0.04152  -0.0577  0.9783  0.0263  -2.9823   0.0000   0.0000   0.0000   0.1213
  -6.800  -0.4615   0.04275   0.03940  -0.0587  0.9769  0.0268  -2.9477   0.0000   0.0000   0.0000   0.1176
  -6.700  -0.4529   0.04132   0.03791  -0.0596  0.9758  0.0272  -2.8852   0.0000   0.0000   0.0000   0.1133
  -6.600  -0.4429   0.04024   0.03681  -0.0604  0.9749  0.0275  -2.8022   0.0000   0.0000   0.0000   0.1086
  -6.500  -0.4324   0.03919   0.03572  -0.0612  0.9741  0.0279  -2.7210   0.0000   0.0000   0.0000   0.1033
  -6.400  -0.4216   0.03814   0.03462  -0.0621  0.9733  0.0283  -2.6622   0.0000   0.0000   0.0000   0.0977
  -6.300  -0.4105   0.03708   0.03350  -0.0629  0.9726  0.0288  -2.6094   0.0000   0.0000   0.0000   0.0915
  -6.200  -0.3990   0.03601   0.03235  -0.0638  0.9720  0.0293  -2.5615   0.0000   0.0000   0.0000   0.0849
  -6.100  -0.3924   0.03511   0.03138  -0.0635  0.9700  0.0297  -2.5290   0.0000   0.0000   0.0000   0.0830
  -6.000  -0.3887   0.03431   0.03052  -0.0625  0.9667  0.0301  -2.5053   0.0000   0.0000   0.0000   0.0841
  -5.900  -0.3813   0.03337   0.02950  -0.0622  0.9644  0.0307  -2.4774   0.0000   0.0000   0.0000   0.0817
  -5.800  -0.3726   0.03239   0.02842  -0.0622  0.9625  0.0313  -2.4501   0.0000   0.0000   0.0000   0.0780
  -5.600  -0.3595   0.02315   0.01791  -0.0591  0.9581  0.0173  -3.2529   0.0000   0.0000   0.0000   0.0799
  -5.500  -0.3474   0.02231   0.01705  -0.0594  0.9572  0.0164  -3.2142   0.0000   0.0000   0.0000   0.0733
  -5.400  -0.3374   0.02051   0.01503  -0.0594  0.9561  0.0158  -3.2618   0.0000   0.0000   0.0000   0.0681
  -5.300  -0.3258   0.01930   0.01367  -0.0596  0.9553  0.0154  -3.2674   0.0000   0.0000   0.0000   0.0611
  -5.200  -0.3135   0.01830   0.01253  -0.0598  0.9546  0.0150  -3.2602   0.0000   0.0000   0.0000   0.0531
  -5.100  -0.3007   0.01742   0.01153  -0.0601  0.9539  0.0148  -3.2434   0.0000   0.0000   0.0000   0.0440
  -5.000  -0.2877   0.01664   0.01063  -0.0604  0.9533  0.0146  -3.2178   0.0000   0.0000   0.0000   0.0336
  -4.900  -0.2743   0.01597   0.00987  -0.0608  0.9527  0.0145  -3.1834   0.0000   0.0000   0.0000   0.0218
  -4.800  -0.2608   0.01538   0.00920  -0.0613  0.9522  0.0145  -3.1416   0.0000   0.0000   0.0000   0.0084
  -4.700  -0.2471   0.01485   0.00861  -0.0618  0.9516  0.0145  -3.0936   0.0000   0.0000   0.0000  -0.0068
  -4.600  -0.2332   0.01437   0.00808  -0.0623  0.9511  0.0147  -3.0408   0.0000   0.0000   0.0000  -0.0242
  -4.500  -0.2193   0.01394   0.00761  -0.0629  0.9506  0.0149  -2.9847   0.0000   0.0000   0.0000  -0.0441
  -4.400  -0.2052   0.01355   0.00718  -0.0635  0.9502  0.0152  -2.9268   0.0000   0.0000   0.0000  -0.0669
  -4.300  -0.1912   0.01321   0.00679  -0.0641  0.9496  0.0156  -2.8680   0.0000   0.0000   0.0000  -0.0931
  -4.200  -0.1771   0.01290   0.00645  -0.0647  0.9490  0.0161  -2.8081   0.0000   0.0000   0.0000  -0.1235
  -4.100  -0.1772   0.01279   0.00632  -0.0623  0.9444  0.0164  -2.7818   0.0000   0.0000   0.0000  -0.1093
  -4.000  -0.1681   0.01259   0.00610  -0.0618  0.9420  0.0170  -2.7327   0.0000   0.0000   0.0000  -0.1258
  -3.900  -0.1591   0.01200   0.00546  -0.0614  0.9399  0.0201  -2.7501   0.0000   0.0000   0.0000  -0.1441
  -3.800  -0.1469   0.01181   0.00528  -0.0616  0.9385  0.0236  -2.6940   0.0000   0.0000   0.0000  -0.1779
  -3.700  -0.1352   0.01144   0.00496  -0.0617  0.9370  0.0322  -2.6640   0.0000   0.0000   0.0000  -0.2152
  -3.600  -0.1224   0.01124   0.00476  -0.0620  0.9358  0.0413  -2.5860   0.0000   0.0000   0.0000  -0.2661
  -3.500  -0.1096   0.01104   0.00461  -0.0624  0.9346  0.0516  -2.4910   0.0000   0.0000   0.0000  -0.3297
  -3.400  -0.0963   0.01090   0.00448  -0.0628  0.9336  0.0604  -2.3855   0.0000   0.0000   0.0000  -0.4135
  -3.300  -0.0831   0.01073   0.00439  -0.0633  0.9325  0.0717  -2.2767   0.0000   0.0000   0.0000  -0.5245
  -3.200  -0.0695   0.01059   0.00426  -0.0639  0.9316  0.0819  -2.1690   0.0000   0.0000   0.0000  -0.6838
  -3.100  -0.0561   0.01039   0.00413  -0.0644  0.9306  0.0952  -2.0640   0.0000   0.0000   0.0000  -0.9143
  -3.000  -0.0429   0.01019   0.00399  -0.0649  0.9296  0.1127  -1.9616   0.0000   0.0000   0.0000  -1.2845
  -2.900  -0.0299   0.00996   0.00386  -0.0653  0.9285  0.1396  -1.8608   0.0000   0.0000   0.0000  -1.9640
  -2.800  -0.0177   0.00964   0.00374  -0.0657  0.9274  0.1888  -1.7639   0.0000   0.0000   0.0000  -3.5128
  -2.700  -0.0067   0.00921   0.00362  -0.0660  0.9260  0.2699  -1.6731   0.0000   0.0000   0.0000  -9.7709
  -2.600  -0.0015   0.00883   0.00355  -0.0650  0.9231  0.3547  -1.6069   0.0000   0.0000   0.0000  -43.4103
  -2.500   0.0030   0.00841   0.00348  -0.0638  0.9198  0.4490  -1.5435   0.0000   0.0000   0.0000  21.9992
  -2.400   0.0090   0.00799   0.00344  -0.0629  0.9169  0.5498  -1.4738   0.0000   0.0000   0.0000   7.3378
  -2.300   0.0174   0.00774   0.00344  -0.0622  0.9146  0.6217  -1.3942   0.0000   0.0000   0.0000   3.8717
  -2.200   0.0278   0.00761   0.00343  -0.0619  0.9125  0.6642  -1.3066   0.0000   0.0000   0.0000   2.4991
  -2.100   0.0393   0.00752   0.00339  -0.0618  0.9107  0.6911  -1.2162   0.0000   0.0000   0.0000   1.8392
  -2.000   0.0514   0.00746   0.00335  -0.0619  0.9090  0.7095  -1.1266   0.0000   0.0000   0.0000   1.4642
  -1.900   0.0637   0.00740   0.00330  -0.0620  0.9073  0.7241  -1.0382   0.0000   0.0000   0.0000   1.2305
  -1.800   0.0761   0.00735   0.00325  -0.0621  0.9057  0.7355  -0.9511   0.0000   0.0000   0.0000   1.0719
  -1.700   0.0884   0.00730   0.00321  -0.0621  0.9041  0.7463  -0.8660   0.0000   0.0000   0.0000   0.9580
  -1.600   0.1011   0.00729   0.00318  -0.0623  0.9023  0.7554  -0.7814   0.0000   0.0000   0.0000   0.8707
  -1.500   0.1106   0.00727   0.00318  -0.0619  0.8998  0.7631  -0.7092   0.0000   0.0000   0.0000   0.8125
  -1.400   0.1196   0.00725   0.00317  -0.0613  0.8968  0.7715  -0.6511   0.0000   0.0000   0.0000   0.7652
  -1.300   0.1296   0.00724   0.00315  -0.0609  0.8939  0.7800  -0.5955   0.0000   0.0000   0.0000   0.7224
  -1.200   0.1399   0.00719   0.00313  -0.0605  0.8911  0.7881  -0.5398   0.0000   0.0000   0.0000   0.6847
  -1.100   0.1509   0.00716   0.00310  -0.0603  0.8884  0.7963  -0.4833   0.0000   0.0000   0.0000   0.6515
  -1.000   0.1623   0.00713   0.00305  -0.0603  0.8859  0.8040  -0.4385   0.0000   0.0000   0.0000   0.6223
  -0.900   0.1735   0.00708   0.00301  -0.0601  0.8835  0.8110  -0.4073   0.0000   0.0000   0.0000   0.5969
  -0.800   0.1850   0.00705   0.00298  -0.0599  0.8812  0.8177  -0.4040   0.0000   0.0000   0.0000   0.5745
  -0.700   0.1970   0.00704   0.00294  -0.0600  0.8789  0.8250  -0.4141   0.0000   0.0000   0.0000   0.5546
  -0.600   0.2070   0.00703   0.00295  -0.0595  0.8761  0.8324  -0.4231   0.0000   0.0000   0.0000   0.5376
  -0.500   0.2153   0.00701   0.00297  -0.0587  0.8727  0.8414  -0.4324   0.0000   0.0000   0.0000   0.5226
  -0.400   0.2244   0.00702   0.00297  -0.0581  0.8691  0.8511  -0.4426   0.0000   0.0000   0.0000   0.5086
  -0.300   0.2337   0.00697   0.00296  -0.0574  0.8657  0.8593  -0.4532   0.0000   0.0000   0.0000   0.4953
  -0.200   0.2436   0.00695   0.00294  -0.0569  0.8624  0.8669  -0.4641   0.0000   0.0000   0.0000   0.4831
  -0.100   0.2541   0.00693   0.00291  -0.0566  0.8593  0.8737  -0.4754   0.0000   0.0000   0.0000   0.4720
   0.000   0.2651   0.00690   0.00287  -0.0563  0.8565  0.8792  -0.4883   0.0000   0.0000   0.0000   0.4617
   0.100   0.2766   0.00689   0.00285  -0.0562  0.8535  0.8841  -0.5015   0.0000   0.0000   0.0000   0.4522
   0.200   0.2851   0.00687   0.00285  -0.0555  0.8498  0.8893  -0.5127   0.0000   0.0000   0.0000   0.4436
   0.300   0.2944   0.00685   0.00283  -0.0550  0.8457  0.8942  -0.5247   0.0000   0.0000   0.0000   0.4356
   0.400   0.3044   0.00683   0.00280  -0.0546  0.8417  0.8987  -0.5385   0.0000   0.0000   0.0000   0.4282
   0.500   0.3150   0.00679   0.00275  -0.0544  0.8378  0.9024  -0.5529   0.0000   0.0000   0.0000   0.4212
   0.600   0.3263   0.00676   0.00271  -0.0542  0.8340  0.9059  -0.5686   0.0000   0.0000   0.0000   0.4147
   0.700   0.3381   0.00674   0.00266  -0.0542  0.8303  0.9092  -0.5860   0.0000   0.0000   0.0000   0.4087
   0.800   0.3477   0.00672   0.00266  -0.0538  0.8258  0.9132  -0.6017   0.0000   0.0000   0.0000   0.4030
   0.900   0.3572   0.00670   0.00264  -0.0533  0.8208  0.9175  -0.6174   0.0000   0.0000   0.0000   0.3976
   1.000   0.3672   0.00668   0.00261  -0.0530  0.8159  0.9218  -0.6335   0.0000   0.0000   0.0000   0.3925
   1.100   0.3782   0.00666   0.00257  -0.0529  0.8114  0.9255  -0.6506   0.0000   0.0000   0.0000   0.3878
   1.200   0.3905   0.00665   0.00254  -0.0530  0.8072  0.9287  -0.6688   0.0000   0.0000   0.0000   0.3836
   1.300   0.4019   0.00664   0.00253  -0.0529  0.8025  0.9322  -0.6864   0.0000   0.0000   0.0000   0.3796
   1.400   0.4128   0.00663   0.00253  -0.0528  0.7967  0.9362  -0.7035   0.0000   0.0000   0.0000   0.3757
   1.500   0.4239   0.00662   0.00252  -0.0527  0.7907  0.9404  -0.7209   0.0000   0.0000   0.0000   0.3720
   1.600   0.4351   0.00662   0.00249  -0.0526  0.7851  0.9446  -0.7398   0.0000   0.0000   0.0000   0.3685
   1.700   0.4465   0.00662   0.00247  -0.0525  0.7794  0.9487  -0.7605   0.0000   0.0000   0.0000   0.3653
   1.800   0.4600   0.00661   0.00247  -0.0530  0.7719  0.9516  -0.7834   0.0000   0.0000   0.0000   0.3627
   1.900   0.4739   0.00662   0.00245  -0.0535  0.7638  0.9543  -0.8068   0.0000   0.0000   0.0000   0.3603
   2.000   0.4878   0.00663   0.00243  -0.0540  0.7560  0.9570  -0.8346   0.0000   0.0000   0.0000   0.3581
   2.100   0.5012   0.00665   0.00243  -0.0544  0.7470  0.9601  -0.8618   0.0000   0.0000   0.0000   0.3559
   2.200   0.5142   0.00667   0.00242  -0.0548  0.7378  0.9635  -0.8888   0.0000   0.0000   0.0000   0.3537
   2.300   0.5268   0.00670   0.00242  -0.0551  0.7291  0.9672  -0.9156   0.0000   0.0000   0.0000   0.3516
   2.400   0.5388   0.00673   0.00243  -0.0552  0.7197  0.9712  -0.9417   0.0000   0.0000   0.0000   0.3495
   2.500   0.5541   0.00678   0.00242  -0.0561  0.7101  0.9729  -0.9720   0.0000   0.0000   0.0000   0.3482
   2.600   0.5694   0.00681   0.00244  -0.0570  0.6992  0.9748  -1.0023   0.0000   0.0000   0.0000   0.3470
   2.800   0.5989   0.00693   0.00246  -0.0585  0.6725  0.9788  -1.0687   0.0000   0.0000   0.0000   0.3445
   2.900   0.6129   0.00702   0.00249  -0.0592  0.6569  0.9813  -1.1035   0.0000   0.0000   0.0000   0.3432
   3.100   0.6395   0.00722   0.00254  -0.0602  0.6215  0.9874  -1.1719   0.0000   0.0000   0.0000   0.3406
   3.200   0.6521   0.00733   0.00258  -0.0605  0.6033  0.9905  -1.2054   0.0000   0.0000   0.0000   0.3392
   3.300   0.6666   0.00746   0.00261  -0.0613  0.5820  0.9928  -1.2419   0.0000   0.0000   0.0000   0.3384
   3.400   0.6807   0.00761   0.00265  -0.0621  0.5588  0.9955  -1.2781   0.0000   0.0000   0.0000   0.3375
   3.500   0.6946   0.00777   0.00270  -0.0628  0.5353  0.9982  -1.3142   0.0000   0.0000   0.0000   0.3366
   3.600   0.7063   0.00792   0.00276  -0.0631  0.5140  1.0000  -1.3473   0.0000   0.0000   0.0000   0.3355
   3.700   0.7096   0.00803   0.00279  -0.0617  0.4984  1.0000  -1.3678   0.0000   0.0000   0.0000   0.3329
   3.800   0.7138   0.00813   0.00283  -0.0604  0.4826  1.0000  -1.3898   0.0000   0.0000   0.0000   0.3305
   3.900   0.7183   0.00827   0.00288  -0.0591  0.4661  1.0000  -1.4124   0.0000   0.0000   0.0000   0.3281
   4.000   0.7234   0.00842   0.00294  -0.0580  0.4482  1.0000  -1.4360   0.0000   0.0000   0.0000   0.3259
   4.100   0.7293   0.00857   0.00301  -0.0570  0.4300  1.0000  -1.4610   0.0000   0.0000   0.0000   0.3238
   4.200   0.7354   0.00873   0.00308  -0.0561  0.4121  1.0000  -1.4863   0.0000   0.0000   0.0000   0.3218
   4.300   0.7415   0.00890   0.00316  -0.0551  0.3941  1.0000  -1.5117   0.0000   0.0000   0.0000   0.3198
   4.400   0.7478   0.00908   0.00328  -0.0542  0.3758  1.0000  -1.5376   0.0000   0.0000   0.0000   0.3179
   4.500   0.7549   0.00923   0.00336  -0.0535  0.3589  1.0000  -1.5649   0.0000   0.0000   0.0000   0.3162
   4.600   0.7620   0.00940   0.00345  -0.0528  0.3434  1.0000  -1.5922   0.0000   0.0000   0.0000   0.3144
   4.700   0.7691   0.00958   0.00355  -0.0521  0.3280  1.0000  -1.6229   0.0000   0.0000   0.0000   0.3128
   4.800   0.7771   0.00972   0.00364  -0.0515  0.3139  1.0000  -1.6626   0.0000   0.0000   0.0000   0.3112
   4.900   0.7845   0.00990   0.00374  -0.0508  0.2999  1.0000  -1.7019   0.0000   0.0000   0.0000   0.3097
   5.000   0.7925   0.01005   0.00384  -0.0503  0.2860  1.0000  -1.7427   0.0000   0.0000   0.0000   0.3082
   5.100   0.8004   0.01021   0.00394  -0.0497  0.2733  1.0000  -1.7834   0.0000   0.0000   0.0000   0.3068
   5.200   0.8084   0.01038   0.00405  -0.0492  0.2603  1.0000  -1.8246   0.0000   0.0000   0.0000   0.3054
   5.300   0.8165   0.01054   0.00416  -0.0486  0.2488  1.0000  -1.8666   0.0000   0.0000   0.0000   0.3041
   5.400   0.8246   0.01071   0.00427  -0.0481  0.2368  1.0000  -1.9086   0.0000   0.0000   0.0000   0.3028
   5.500   0.8329   0.01087   0.00439  -0.0476  0.2263  1.0000  -1.9550   0.0000   0.0000   0.0000   0.3015
   5.600   0.8412   0.01103   0.00450  -0.0472  0.2155  1.0000  -2.0048   0.0000   0.0000   0.0000   0.3003
   5.700   0.8493   0.01121   0.00463  -0.0467  0.2056  1.0000  -2.0544   0.0000   0.0000   0.0000   0.2991
   5.800   0.8580   0.01135   0.00474  -0.0462  0.1965  1.0000  -2.1058   0.0000   0.0000   0.0000   0.2979
   5.900   0.8659   0.01155   0.00490  -0.0457  0.1867  1.0000  -2.1555   0.0000   0.0000   0.0000   0.2967
   6.000   0.8747   0.01168   0.00502  -0.0453  0.1794  1.0000  -2.2080   0.0000   0.0000   0.0000   0.2956
   6.100   0.8831   0.01185   0.00515  -0.0449  0.1713  1.0000  -2.2599   0.0000   0.0000   0.0000   0.2945
   6.200   0.8908   0.01207   0.00530  -0.0443  0.1622  1.0000  -2.3099   0.0000   0.0000   0.0000   0.2934
   6.300   0.8999   0.01218   0.00543  -0.0440  0.1563  1.0000  -2.3643   0.0000   0.0000   0.0000   0.2924
   6.400   0.9083   0.01235   0.00556  -0.0435  0.1491  1.0000  -2.4174   0.0000   0.0000   0.0000   0.2913
   6.500   0.9160   0.01257   0.00572  -0.0430  0.1408  1.0000  -2.4682   0.0000   0.0000   0.0000   0.2902
   6.600   0.9249   0.01270   0.00586  -0.0426  0.1356  1.0000  -2.5232   0.0000   0.0000   0.0000   0.2892
   6.700   0.9336   0.01285   0.00599  -0.0422  0.1301  1.0000  -2.5782   0.0000   0.0000   0.0000   0.2883
   6.800   0.9417   0.01304   0.00613  -0.0417  0.1239  1.0000  -2.6316   0.0000   0.0000   0.0000   0.2873
   6.900   0.9489   0.01331   0.00635  -0.0411  0.1166  1.0000  -2.6815   0.0000   0.0000   0.0000   0.2862
   7.000   0.9583   0.01340   0.00647  -0.0408  0.1138  1.0000  -2.7396   0.0000   0.0000   0.0000   0.2853
   7.100   0.9670   0.01354   0.00661  -0.0404  0.1100  1.0000  -2.7960   0.0000   0.0000   0.0000   0.2844
   7.200   0.9753   0.01371   0.00677  -0.0399  0.1057  1.0000  -2.8511   0.0000   0.0000   0.0000   0.2835
   7.300   0.9830   0.01394   0.00695  -0.0394  0.1009  1.0000  -2.9043   0.0000   0.0000   0.0000   0.2825
   7.400   0.9893   0.01426   0.00727  -0.0386  0.0951  1.0000  -2.9572   0.0000   0.0000   0.0000   0.2813
   7.500   0.9987   0.01434   0.00738  -0.0383  0.0935  1.0000  -3.0266   0.0000   0.0000   0.0000   0.2806
   7.600   1.0078   0.01445   0.00752  -0.0380  0.0912  1.0000  -3.0949   0.0000   0.0000   0.0000   0.2798
   7.700   1.0164   0.01460   0.00767  -0.0376  0.0883  1.0000  -3.1621   0.0000   0.0000   0.0000   0.2789
   7.800   1.0246   0.01477   0.00783  -0.0371  0.0852  1.0000  -3.2282   0.0000   0.0000   0.0000   0.2781
   7.900   1.0323   0.01498   0.00802  -0.0366  0.0820  1.0000  -3.2925   0.0000   0.0000   0.0000   0.2772
   8.000   1.0390   0.01526   0.00828  -0.0359  0.0783  1.0000  -3.3517   0.0000   0.0000   0.0000   0.2761
   8.100   1.0445   0.01564   0.00866  -0.0349  0.0746  1.0000  -3.4037   0.0000   0.0000   0.0000   0.2749
   8.200   1.0535   0.01573   0.00879  -0.0346  0.0738  1.0000  -3.4750   0.0000   0.0000   0.0000   0.2742
   8.300   1.0623   0.01585   0.00894  -0.0343  0.0726  1.0000  -3.5452   0.0000   0.0000   0.0000   0.2735
   8.400   1.0708   0.01599   0.00911  -0.0338  0.0710  1.0000  -3.6144   0.0000   0.0000   0.0000   0.2727
   8.500   1.0790   0.01615   0.00929  -0.0334  0.0693  1.0000  -3.6831   0.0000   0.0000   0.0000   0.2719
   8.600   1.0870   0.01632   0.00947  -0.0329  0.0674  1.0000  -3.7513   0.0000   0.0000   0.0000   0.2711
   8.700   1.0946   0.01651   0.00966  -0.0324  0.0654  1.0000  -3.8184   0.0000   0.0000   0.0000   0.2703
   8.800   1.1017   0.01674   0.00988  -0.0317  0.0632  1.0000  -3.8913   0.0000   0.0000   0.0000   0.2694
   8.900   1.1078   0.01704   0.01017  -0.0309  0.0606  1.0000  -3.9593   0.0000   0.0000   0.0000   0.2684
   9.000   1.1112   0.01750   0.01065  -0.0297  0.0575  1.0000  -4.0113   0.0000   0.0000   0.0000   0.2670
   9.100   1.1159   0.01787   0.01105  -0.0286  0.0558  1.0000  -4.0713   0.0000   0.0000   0.0000   0.2659
   9.200   1.1243   0.01795   0.01119  -0.0282  0.0551  1.0000  -4.1544   0.0000   0.0000   0.0000   0.2652
   9.300   1.1323   0.01806   0.01133  -0.0277  0.0540  1.0000  -4.2359   0.0000   0.0000   0.0000   0.2644
   9.400   1.1398   0.01820   0.01150  -0.0271  0.0526  1.0000  -4.3154   0.0000   0.0000   0.0000   0.2636
   9.500   1.1470   0.01836   0.01168  -0.0265  0.0509  1.0000  -4.3933   0.0000   0.0000   0.0000   0.2628
   9.600   1.1539   0.01853   0.01187  -0.0259  0.0493  1.0000  -4.4707   0.0000   0.0000   0.0000   0.2620
   9.700   1.1602   0.01874   0.01208  -0.0251  0.0476  1.0000  -4.5458   0.0000   0.0000   0.0000   0.2611
   9.800   1.1658   0.01901   0.01234  -0.0243  0.0458  1.0000  -4.6166   0.0000   0.0000   0.0000   0.2601
   9.900   1.1700   0.01937   0.01270  -0.0232  0.0440  1.0000  -4.6779   0.0000   0.0000   0.0000   0.2590
  10.000   1.1717   0.01993   0.01328  -0.0218  0.0419  1.0000  -4.7209   0.0000   0.0000   0.0000   0.2576
  10.100   1.1702   0.02083   0.01425  -0.0199  0.0398  1.0000  -4.7419   0.0000   0.0000   0.0000   0.2559
  10.200   1.1775   0.02098   0.01442  -0.0193  0.0395  1.0000  -4.8662   0.0000   0.0000   0.0000   0.2551
  10.300   1.1844   0.02114   0.01463  -0.0187  0.0391  1.0000  -4.9892   0.0000   0.0000   0.0000   0.2544
  10.400   1.1910   0.02135   0.01486  -0.0181  0.0385  1.0000  -5.1099   0.0000   0.0000   0.0000   0.2536
  10.500   1.1973   0.02158   0.01514  -0.0174  0.0379  1.0000  -5.2284   0.0000   0.0000   0.0000   0.2528
  10.600   1.2032   0.02184   0.01543  -0.0167  0.0372  1.0000  -5.3449   0.0000   0.0000   0.0000   0.2520
  10.700   1.2090   0.02212   0.01575  -0.0159  0.0364  1.0000  -5.4603   0.0000   0.0000   0.0000   0.2512
  10.800   1.2145   0.02241   0.01607  -0.0152  0.0356  1.0000  -5.5758   0.0000   0.0000   0.0000   0.2503
  10.900   1.2199   0.02270   0.01639  -0.0144  0.0349  1.0000  -5.6917   0.0000   0.0000   0.0000   0.2495
  11.000   1.2253   0.02298   0.01670  -0.0137  0.0341  1.0000  -5.8087   0.0000   0.0000   0.0000   0.2487
  11.100   1.2306   0.02327   0.01701  -0.0129  0.0334  1.0000  -5.9269   0.0000   0.0000   0.0000   0.2479
  11.200   1.2358   0.02355   0.01732  -0.0122  0.0326  1.0000  -6.0460   0.0000   0.0000   0.0000   0.2471
  11.300   1.2406   0.02387   0.01766  -0.0114  0.0319  1.0000  -6.1625   0.0000   0.0000   0.0000   0.2463
  11.400   1.2447   0.02424   0.01804  -0.0106  0.0312  1.0000  -6.2735   0.0000   0.0000   0.0000   0.2455
  11.500   1.2480   0.02468   0.01854  -0.0096  0.0305  1.0000  -6.3785   0.0000   0.0000   0.0000   0.2445
  11.600   1.2503   0.02524   0.01912  -0.0086  0.0298  1.0000  -6.4710   0.0000   0.0000   0.0000   0.2435
  11.700   1.2515   0.02592   0.01984  -0.0075  0.0291  1.0000  -6.5511   0.0000   0.0000   0.0000   0.2425
  11.800   1.2517   0.02677   0.02076  -0.0062  0.0284  1.0000  -6.6171   0.0000   0.0000   0.0000   0.2413
  11.900   1.2505   0.02787   0.02195  -0.0049  0.0277  1.0000  -6.6645   0.0000   0.0000   0.0000   0.2401
  12.000   1.2502   0.02897   0.02315  -0.0037  0.0272  1.0000  -6.7187   0.0000   0.0000   0.0000   0.2391
  12.100   1.2548   0.02931   0.02353  -0.0031  0.0270  1.0000  -6.8368   0.0000   0.0000   0.0000   0.2384
  12.200   1.2592   0.02968   0.02395  -0.0024  0.0269  1.0000  -6.9532   0.0000   0.0000   0.0000   0.2377
  12.300   1.2633   0.03008   0.02440  -0.0017  0.0267  1.0000  -7.0667   0.0000   0.0000   0.0000   0.2370
  12.400   1.2671   0.03051   0.02488  -0.0010  0.0265  1.0000  -7.1780   0.0000   0.0000   0.0000   0.2362
  12.500   1.2707   0.03097   0.02539  -0.0003  0.0262  1.0000  -7.2869   0.0000   0.0000   0.0000   0.2355
  12.600   1.2740   0.03147   0.02594   0.0004  0.0260  1.0000  -7.3938   0.0000   0.0000   0.0000   0.2348
  12.700   1.2769   0.03199   0.02652   0.0011  0.0257  1.0000  -7.4973   0.0000   0.0000   0.0000   0.2341
  12.800   1.2796   0.03254   0.02712   0.0018  0.0254  1.0000  -7.5987   0.0000   0.0000   0.0000   0.2334
  12.900   1.2822   0.03310   0.02774   0.0025  0.0251  1.0000  -7.6999   0.0000   0.0000   0.0000   0.2326
  13.000   1.2847   0.03367   0.02836   0.0032  0.0248  1.0000  -7.8014   0.0000   0.0000   0.0000   0.2320
  13.100   1.2869   0.03425   0.02899   0.0038  0.0245  1.0000  -7.9015   0.0000   0.0000   0.0000   0.2313
  13.200   1.2891   0.03483   0.02961   0.0045  0.0241  1.0000  -8.0024   0.0000   0.0000   0.0000   0.2306
  13.300   1.2914   0.03538   0.03021   0.0051  0.0237  1.0000  -8.1062   0.0000   0.0000   0.0000   0.2300
  13.400   1.2937   0.03593   0.03079   0.0056  0.0233  1.0000  -8.2123   0.0000   0.0000   0.0000   0.2294
  13.500   1.2959   0.03646   0.03136   0.0061  0.0229  1.0000  -8.3201   0.0000   0.0000   0.0000   0.2288
  13.600   1.2983   0.03697   0.03189   0.0066  0.0225  1.0000  -8.4320   0.0000   0.0000   0.0000   0.2282
  13.700   1.3009   0.03746   0.03241   0.0071  0.0221  1.0000  -8.5477   0.0000   0.0000   0.0000   0.2277
  13.800   1.3033   0.03798   0.03294   0.0075  0.0217  1.0000  -8.6630   0.0000   0.0000   0.0000   0.2272
  13.900   1.3056   0.03851   0.03349   0.0078  0.0213  1.0000  -8.7786   0.0000   0.0000   0.0000   0.2268
  14.000   1.3075   0.03909   0.03409   0.0082  0.0209  1.0000  -8.8908   0.0000   0.0000   0.0000   0.2263
  14.100   1.3084   0.03981   0.03482   0.0086  0.0205  1.0000  -8.9894   0.0000   0.0000   0.0000   0.2258
  14.200   1.3081   0.04068   0.03571   0.0090  0.0201  1.0000  -9.0735   0.0000   0.0000   0.0000   0.2253
  14.300   1.3066   0.04172   0.03679   0.0094  0.0198  1.0000  -9.1390   0.0000   0.0000   0.0000   0.2248
  14.400   1.3035   0.04296   0.03809   0.0098  0.0194  1.0000  -9.1840   0.0000   0.0000   0.0000   0.2243
  14.500   1.2990   0.04441   0.03961   0.0102  0.0190  1.0000  -9.2089   0.0000   0.0000   0.0000   0.2238
  14.600   1.2932   0.04607   0.04135   0.0105  0.0187  1.0000  -9.2148   0.0000   0.0000   0.0000   0.2233
  14.700   1.2863   0.04791   0.04329   0.0108  0.0185  1.0000  -9.2045   0.0000   0.0000   0.0000   0.2228
  14.800   1.2785   0.04993   0.04541   0.0109  0.0183  1.0000  -9.1808   0.0000   0.0000   0.0000   0.2225
  14.900   1.2700   0.05208   0.04767   0.0109  0.0181  1.0000  -9.1472   0.0000   0.0000   0.0000   0.2222
  15.000   1.2667   0.05356   0.04922   0.0108  0.0180  1.0000  -9.1845   0.0000   0.0000   0.0000   0.2221


