xflr5 v6.61

 Calculated polar for: S8025 (8%)

 1 1 Reynolds number fixed          Mach number fixed         

 xtrf =   1.000 (top)        1.000 (bottom)
 Mach =   0.000     Re =     0.225 e 6     Ncrit =   9.000

  alpha     CL        CD       CDp       Cm    Top Xtr Bot Xtr   Cpmin    Chinge    XCp    
 ------- -------- --------- --------- -------- ------- ------- -------- --------- ---------
 -10.000  -0.6903   0.11245   0.10922   0.0255  1.0000  0.0375  -2.3154   0.0000   0.0000   0.0000   0.2814
  -9.900  -0.6960   0.10899   0.10579   0.0253  1.0000  0.0380  -2.3548   0.0000   0.0000   0.0000   0.2808
  -9.800  -0.6936   0.10773   0.10453   0.0262  1.0000  0.0383  -2.3022   0.0000   0.0000   0.0000   0.2823
  -9.700  -0.6915   0.10642   0.10323   0.0264  1.0000  0.0386  -2.2675   0.0000   0.0000   0.0000   0.2829
  -9.600  -0.6893   0.10514   0.10195   0.0265  1.0000  0.0389  -2.2366   0.0000   0.0000   0.0000   0.2832
  -9.500  -0.6875   0.10379   0.10061   0.0263  1.0000  0.0392  -2.2133   0.0000   0.0000   0.0000   0.2832
  -9.400  -0.6860   0.10235   0.09917   0.0260  1.0000  0.0394  -2.1978   0.0000   0.0000   0.0000   0.2829
  -9.300  -0.6849   0.10084   0.09767   0.0256  1.0000  0.0397  -2.1877   0.0000   0.0000   0.0000   0.2824
  -9.200  -0.6840   0.09927   0.09610   0.0250  1.0000  0.0400  -2.1827   0.0000   0.0000   0.0000   0.2816
  -9.100  -0.6835   0.09760   0.09445   0.0243  1.0000  0.0403  -2.1829   0.0000   0.0000   0.0000   0.2807
  -9.000  -0.6832   0.09586   0.09272   0.0234  1.0000  0.0406  -2.1877   0.0000   0.0000   0.0000   0.2795
  -8.900  -0.6832   0.09404   0.09092   0.0224  1.0000  0.0409  -2.1968   0.0000   0.0000   0.0000   0.2781
  -8.800  -0.6836   0.09216   0.08904   0.0214  1.0000  0.0412  -2.2099   0.0000   0.0000   0.0000   0.2766
  -7.500  -0.7325   0.04176   0.03719  -0.0113  1.0000  0.0204  -3.9638   0.0000   0.0000   0.0000   0.2296
  -7.400  -0.7301   0.03927   0.03458  -0.0115  1.0000  0.0197  -3.9898   0.0000   0.0000   0.0000   0.2294
  -7.300  -0.7264   0.03701   0.03212  -0.0115  1.0000  0.0189  -4.0272   0.0000   0.0000   0.0000   0.2293
  -7.200  -0.7224   0.03446   0.02931  -0.0113  1.0000  0.0178  -4.1070   0.0000   0.0000   0.0000   0.2295
  -7.100  -0.7194   0.03000   0.02404  -0.0103  1.0000  0.0152  -4.4915   0.0000   0.0000   0.0000   0.2307
  -7.000  -0.7099   0.02936   0.02321  -0.0100  1.0000  0.0148  -4.4534   0.0000   0.0000   0.0000   0.2311
  -6.900  -0.7003   0.02883   0.02257  -0.0097  1.0000  0.0146  -4.3857   0.0000   0.0000   0.0000   0.2314
  -6.800  -0.6907   0.02830   0.02194  -0.0094  1.0000  0.0145  -4.3135   0.0000   0.0000   0.0000   0.2316
  -6.700  -0.6829   0.02674   0.02023  -0.0091  1.0000  0.0143  -4.3066   0.0000   0.0000   0.0000   0.2319
  -6.600  -0.6749   0.02530   0.01863  -0.0088  1.0000  0.0141  -4.2970   0.0000   0.0000   0.0000   0.2323
  -6.500  -0.6662   0.02411   0.01729  -0.0085  1.0000  0.0140  -4.2730   0.0000   0.0000   0.0000   0.2327
  -6.400  -0.6572   0.02306   0.01611  -0.0081  1.0000  0.0140  -4.2406   0.0000   0.0000   0.0000   0.2331
  -6.300  -0.6479   0.02212   0.01505  -0.0078  1.0000  0.0139  -4.2020   0.0000   0.0000   0.0000   0.2335
  -6.200  -0.6385   0.02126   0.01408  -0.0075  1.0000  0.0139  -4.1585   0.0000   0.0000   0.0000   0.2339
  -6.100  -0.6289   0.02048   0.01321  -0.0071  1.0000  0.0140  -4.1109   0.0000   0.0000   0.0000   0.2343
  -6.000  -0.6193   0.01975   0.01241  -0.0068  1.0000  0.0140  -4.0598   0.0000   0.0000   0.0000   0.2347
  -5.900  -0.6096   0.01908   0.01167  -0.0065  1.0000  0.0141  -4.0057   0.0000   0.0000   0.0000   0.2352
  -5.800  -0.5999   0.01847   0.01100  -0.0061  1.0000  0.0142  -3.9485   0.0000   0.0000   0.0000   0.2356
  -5.700  -0.5901   0.01792   0.01040  -0.0058  1.0000  0.0144  -3.8880   0.0000   0.0000   0.0000   0.2360
  -5.600  -0.5808   0.01724   0.00968  -0.0054  1.0000  0.0146  -3.8415   0.0000   0.0000   0.0000   0.2366
  -5.500  -0.5722   0.01636   0.00875  -0.0050  1.0000  0.0151  -3.8150   0.0000   0.0000   0.0000   0.2372
  -5.400  -0.5630   0.01570   0.00806  -0.0047  1.0000  0.0158  -3.7661   0.0000   0.0000   0.0000   0.2377
  -5.300  -0.5533   0.01523   0.00756  -0.0045  1.0000  0.0167  -3.6984   0.0000   0.0000   0.0000   0.2381
  -5.200  -0.5432   0.01485   0.00714  -0.0042  1.0000  0.0178  -3.6294   0.0000   0.0000   0.0000   0.2384
  -5.100  -0.5330   0.01448   0.00673  -0.0040  1.0000  0.0195  -3.5685   0.0000   0.0000   0.0000   0.2388
  -4.900  -0.5130   0.01355   0.00570  -0.0034  1.0000  0.0273  -3.4837   0.0000   0.0000   0.0000   0.2398
  -4.800  -0.5044   0.01260   0.00507  -0.0030  1.0000  0.0668  -3.5152   0.0000   0.0000   0.0000   0.2405
  -4.700  -0.4944   0.01232   0.00492  -0.0029  1.0000  0.0886  -3.4095   0.0000   0.0000   0.0000   0.2407
  -4.600  -0.4842   0.01210   0.00480  -0.0028  1.0000  0.1061  -3.2894   0.0000   0.0000   0.0000   0.2408
  -4.500  -0.4739   0.01191   0.00473  -0.0028  1.0000  0.1255  -3.1630   0.0000   0.0000   0.0000   0.2408
  -4.400  -0.4637   0.01174   0.00465  -0.0027  1.0000  0.1437  -3.0370   0.0000   0.0000   0.0000   0.2409
  -4.300  -0.4534   0.01153   0.00452  -0.0026  1.0000  0.1596  -2.9154   0.0000   0.0000   0.0000   0.2411
  -4.200  -0.4431   0.01131   0.00435  -0.0024  1.0000  0.1745  -2.7967   0.0000   0.0000   0.0000   0.2413
  -4.100  -0.4328   0.01111   0.00419  -0.0023  1.0000  0.1905  -2.6783   0.0000   0.0000   0.0000   0.2416
  -3.900  -0.4123   0.01068   0.00390  -0.0020  1.0000  0.2257  -2.4444   0.0000   0.0000   0.0000   0.2421
  -3.800  -0.4022   0.01047   0.00377  -0.0018  1.0000  0.2447  -2.3294   0.0000   0.0000   0.0000   0.2425
  -3.700  -0.3920   0.01026   0.00364  -0.0017  1.0000  0.2644  -2.2155   0.0000   0.0000   0.0000   0.2428
  -3.600  -0.3818   0.01006   0.00352  -0.0015  1.0000  0.2848  -2.1030   0.0000   0.0000   0.0000   0.2432
  -3.500  -0.3716   0.00988   0.00341  -0.0013  1.0000  0.3056  -1.9921   0.0000   0.0000   0.0000   0.2436
  -3.400  -0.3614   0.00970   0.00331  -0.0012  1.0000  0.3276  -1.8844   0.0000   0.0000   0.0000   0.2440
  -3.300  -0.3513   0.00952   0.00318  -0.0010  1.0000  0.3509  -1.7930   0.0000   0.0000   0.0000   0.2445
  -3.200  -0.3412   0.00934   0.00310  -0.0008  1.0000  0.3750  -1.7092   0.0000   0.0000   0.0000   0.2450
  -3.100  -0.3311   0.00917   0.00302  -0.0006  1.0000  0.3995  -1.6266   0.0000   0.0000   0.0000   0.2456
  -3.000  -0.3210   0.00901   0.00295  -0.0003  1.0000  0.4241  -1.5453   0.0000   0.0000   0.0000   0.2463
  -2.900  -0.3110   0.00885   0.00288  -0.0001  1.0000  0.4487  -1.4652   0.0000   0.0000   0.0000   0.2471
  -2.800  -0.3010   0.00870   0.00282   0.0002  1.0000  0.4739  -1.3864   0.0000   0.0000   0.0000   0.2480
  -2.700  -0.2911   0.00855   0.00277   0.0005  1.0000  0.5000  -1.3091   0.0000   0.0000   0.0000   0.2491
  -2.600  -0.2812   0.00841   0.00273   0.0008  1.0000  0.5269  -1.2332   0.0000   0.0000   0.0000   0.2503
  -2.500  -0.2714   0.00827   0.00270   0.0011  1.0000  0.5536  -1.1588   0.0000   0.0000   0.0000   0.2517
  -2.400  -0.2617   0.00814   0.00267   0.0015  1.0000  0.5796  -1.0856   0.0000   0.0000   0.0000   0.2533
  -2.300  -0.2519   0.00802   0.00264   0.0019  1.0000  0.6047  -1.0138   0.0000   0.0000   0.0000   0.2550
  -2.200  -0.2422   0.00791   0.00261   0.0023  1.0000  0.6286  -0.9434   0.0000   0.0000   0.0000   0.2570
  -2.100  -0.2326   0.00779   0.00259   0.0027  1.0000  0.6507  -0.8746   0.0000   0.0000   0.0000   0.2592
  -2.000  -0.2229   0.00768   0.00257   0.0031  1.0000  0.6716  -0.8171   0.0000   0.0000   0.0000   0.2617
  -1.900  -0.2133   0.00758   0.00254   0.0036  1.0000  0.6921  -0.7889   0.0000   0.0000   0.0000   0.2645
  -1.800  -0.2037   0.00749   0.00253   0.0040  1.0000  0.7126  -0.7633   0.0000   0.0000   0.0000   0.2676
  -1.700  -0.1942   0.00740   0.00247   0.0045  1.0000  0.7335  -0.7380   0.0000   0.0000   0.0000   0.2712
  -1.600  -0.1848   0.00732   0.00246   0.0051  1.0000  0.7544  -0.7130   0.0000   0.0000   0.0000   0.2753
  -1.400  -0.1665   0.00715   0.00245   0.0063  1.0000  0.7972  -0.6640   0.0000   0.0000   0.0000   0.2858
  -1.300  -0.1575   0.00707   0.00245   0.0070  1.0000  0.8188  -0.6399   0.0000   0.0000   0.0000   0.2923
  -1.200  -0.1486   0.00701   0.00246   0.0077  1.0000  0.8404  -0.6160   0.0000   0.0000   0.0000   0.2997
  -1.100  -0.1393   0.00695   0.00247   0.0084  1.0000  0.8626  -0.5918   0.0000   0.0000   0.0000   0.3081
  -1.000  -0.1290   0.00690   0.00248   0.0088  1.0000  0.8858  -0.5669   0.0000   0.0000   0.0000   0.3165
  -0.900  -0.1165   0.00688   0.00249   0.0088  1.0000  0.9097  -0.5424   0.0000   0.0000   0.0000   0.3238
  -0.800  -0.0999   0.00686   0.00251   0.0079  1.0000  0.9318  -0.5137   0.0000   0.0000   0.0000   0.3274
  -0.700  -0.0807   0.00686   0.00251   0.0064  1.0000  0.9521  -0.4825   0.0000   0.0000   0.0000   0.3273
  -0.600  -0.0593   0.00686   0.00251   0.0043  1.0000  0.9683  -0.4495   0.0000   0.0000   0.0000   0.3213
  -0.500  -0.0383   0.00685   0.00250   0.0023  1.0000  0.9821  -0.4175   0.0000   0.0000   0.0000   0.3078
  -0.400  -0.0149   0.00685   0.00249  -0.0003  0.9938  0.9918  -0.3899   0.0000   0.0000   0.0000   0.2281
  -0.300   0.0120   0.00685   0.00246  -0.0035  0.9737  0.9976  -0.3993   0.0000   0.0000   0.0000   0.5459
  -0.200   0.0370   0.00686   0.00244  -0.0064  0.9466  1.0000  -0.4239   0.0000   0.0000   0.0000   0.4216
  -0.100   0.0579   0.00688   0.00241  -0.0082  0.9142  1.0000  -0.4458   0.0000   0.0000   0.0000   0.3913
   0.000   0.0727   0.00691   0.00236  -0.0087  0.8807  1.0000  -0.4636   0.0000   0.0000   0.0000   0.3690
   0.100   0.0830   0.00696   0.00231  -0.0083  0.8502  1.0000  -0.4792   0.0000   0.0000   0.0000   0.3488
   0.200   0.0919   0.00703   0.00228  -0.0076  0.8229  1.0000  -0.4938   0.0000   0.0000   0.0000   0.3315
   0.300   0.1007   0.00712   0.00224  -0.0069  0.7982  1.0000  -0.5083   0.0000   0.0000   0.0000   0.3174
   0.400   0.1096   0.00720   0.00222  -0.0063  0.7755  1.0000  -0.5229   0.0000   0.0000   0.0000   0.3061
   0.500   0.1187   0.00729   0.00220  -0.0058  0.7542  1.0000  -0.5378   0.0000   0.0000   0.0000   0.2971
   0.600   0.1281   0.00737   0.00219  -0.0053  0.7345  1.0000  -0.5528   0.0000   0.0000   0.0000   0.2899
   0.700   0.1376   0.00745   0.00218  -0.0049  0.7161  1.0000  -0.5681   0.0000   0.0000   0.0000   0.2838
   0.800   0.1471   0.00754   0.00218  -0.0045  0.6985  1.0000  -0.5835   0.0000   0.0000   0.0000   0.2787
   0.900   0.1567   0.00764   0.00217  -0.0041  0.6809  1.0000  -0.5989   0.0000   0.0000   0.0000   0.2742
   1.000   0.1666   0.00771   0.00217  -0.0038  0.6633  1.0000  -0.6156   0.0000   0.0000   0.0000   0.2706
   1.100   0.1763   0.00780   0.00218  -0.0034  0.6466  1.0000  -0.6330   0.0000   0.0000   0.0000   0.2673
   1.200   0.1861   0.00790   0.00218  -0.0030  0.6297  1.0000  -0.6504   0.0000   0.0000   0.0000   0.2644
   1.300   0.1961   0.00797   0.00220  -0.0028  0.6128  1.0000  -0.6686   0.0000   0.0000   0.0000   0.2621
   1.400   0.2060   0.00807   0.00221  -0.0025  0.5971  1.0000  -0.6884   0.0000   0.0000   0.0000   0.2598
   1.500   0.2160   0.00816   0.00222  -0.0022  0.5808  1.0000  -0.7104   0.0000   0.0000   0.0000   0.2579
   1.600   0.2262   0.00824   0.00223  -0.0019  0.5653  1.0000  -0.7328   0.0000   0.0000   0.0000   0.2563
   1.800   0.2464   0.00842   0.00227  -0.0014  0.5355  1.0000  -0.7781   0.0000   0.0000   0.0000   0.2535
   1.900   0.2565   0.00853   0.00229  -0.0012  0.5217  1.0000  -0.8008   0.0000   0.0000   0.0000   0.2523
   2.000   0.2669   0.00860   0.00232  -0.0010  0.5075  1.0000  -0.8261   0.0000   0.0000   0.0000   0.2513
   2.100   0.2770   0.00871   0.00235  -0.0008  0.4947  1.0000  -0.8520   0.0000   0.0000   0.0000   0.2503
   2.200   0.2874   0.00879   0.00239  -0.0006  0.4812  1.0000  -0.8784   0.0000   0.0000   0.0000   0.2496
   2.300   0.2976   0.00890   0.00242  -0.0004  0.4688  1.0000  -0.9046   0.0000   0.0000   0.0000   0.2487
   2.400   0.3081   0.00898   0.00246  -0.0002  0.4558  1.0000  -0.9313   0.0000   0.0000   0.0000   0.2481
   2.500   0.3183   0.00910   0.00250   0.0000  0.4437  1.0000  -0.9579   0.0000   0.0000   0.0000   0.2474
   2.600   0.3289   0.00917   0.00255   0.0002  0.4315  1.0000  -0.9850   0.0000   0.0000   0.0000   0.2469
   2.700   0.3391   0.00930   0.00260   0.0003  0.4200  1.0000  -1.0120   0.0000   0.0000   0.0000   0.2463
   2.800   0.3497   0.00938   0.00266   0.0005  0.4088  1.0000  -1.0394   0.0000   0.0000   0.0000   0.2459
   2.900   0.3601   0.00949   0.00271   0.0007  0.3976  1.0000  -1.0668   0.0000   0.0000   0.0000   0.2454
   3.000   0.3706   0.00959   0.00284   0.0008  0.3868  1.0000  -1.0945   0.0000   0.0000   0.0000   0.2450
   3.100   0.3811   0.00969   0.00290   0.0010  0.3755  1.0000  -1.1239   0.0000   0.0000   0.0000   0.2446
   3.200   0.3914   0.00982   0.00297   0.0011  0.3651  1.0000  -1.1555   0.0000   0.0000   0.0000   0.2442
   3.300   0.4020   0.00990   0.00304   0.0012  0.3541  1.0000  -1.1879   0.0000   0.0000   0.0000   0.2439
   3.400   0.4123   0.01006   0.00310   0.0014  0.3439  1.0000  -1.2253   0.0000   0.0000   0.0000   0.2435
   3.500   0.4230   0.01013   0.00319   0.0015  0.3335  1.0000  -1.2689   0.0000   0.0000   0.0000   0.2433
   3.600   0.4334   0.01026   0.00326   0.0017  0.3232  1.0000  -1.3124   0.0000   0.0000   0.0000   0.2430
   3.700   0.4439   0.01037   0.00335   0.0018  0.3135  1.0000  -1.3563   0.0000   0.0000   0.0000   0.2427
   3.800   0.4545   0.01047   0.00343   0.0019  0.3035  1.0000  -1.4008   0.0000   0.0000   0.0000   0.2425
   3.900   0.4648   0.01064   0.00352   0.0021  0.2943  1.0000  -1.4451   0.0000   0.0000   0.0000   0.2422
   4.000   0.4755   0.01071   0.00361   0.0022  0.2850  1.0000  -1.4906   0.0000   0.0000   0.0000   0.2420
   4.100   0.4859   0.01086   0.00370   0.0023  0.2759  1.0000  -1.5385   0.0000   0.0000   0.0000   0.2418
   4.200   0.4965   0.01098   0.00381   0.0024  0.2673  1.0000  -1.5921   0.0000   0.0000   0.0000   0.2416
   4.300   0.5070   0.01110   0.00391   0.0025  0.2583  1.0000  -1.6465   0.0000   0.0000   0.0000   0.2414
   4.400   0.5172   0.01129   0.00402   0.0027  0.2497  1.0000  -1.7004   0.0000   0.0000   0.0000   0.2411
   4.500   0.5281   0.01136   0.00414   0.0028  0.2413  1.0000  -1.7561   0.0000   0.0000   0.0000   0.2410
   4.600   0.5385   0.01151   0.00429   0.0029  0.2330  1.0000  -1.8123   0.0000   0.0000   0.0000   0.2408
   4.700   0.5489   0.01168   0.00444   0.0030  0.2254  1.0000  -1.8677   0.0000   0.0000   0.0000   0.2406
   4.800   0.5596   0.01179   0.00457   0.0031  0.2175  1.0000  -1.9243   0.0000   0.0000   0.0000   0.2404
   4.900   0.5698   0.01198   0.00469   0.0033  0.2098  1.0000  -1.9803   0.0000   0.0000   0.0000   0.2402
   5.000   0.5804   0.01212   0.00485   0.0034  0.2023  1.0000  -2.0372   0.0000   0.0000   0.0000   0.2401
   5.100   0.5909   0.01226   0.00498   0.0035  0.1945  1.0000  -2.0948   0.0000   0.0000   0.0000   0.2399
   5.200   0.6010   0.01249   0.00514   0.0036  0.1869  1.0000  -2.1514   0.0000   0.0000   0.0000   0.2397
   5.300   0.6117   0.01259   0.00528   0.0037  0.1794  1.0000  -2.2102   0.0000   0.0000   0.0000   0.2396
   5.400   0.6220   0.01278   0.00543   0.0039  0.1719  1.0000  -2.2684   0.0000   0.0000   0.0000   0.2394
   5.500   0.6323   0.01297   0.00562   0.0040  0.1648  1.0000  -2.3262   0.0000   0.0000   0.0000   0.2392
   5.600   0.6429   0.01310   0.00576   0.0041  0.1574  1.0000  -2.3859   0.0000   0.0000   0.0000   0.2391
   5.700   0.6527   0.01339   0.00596   0.0042  0.1501  1.0000  -2.4433   0.0000   0.0000   0.0000   0.2389
   5.800   0.6635   0.01348   0.00612   0.0043  0.1434  1.0000  -2.5058   0.0000   0.0000   0.0000   0.2388
   5.900   0.6737   0.01368   0.00628   0.0044  0.1366  1.0000  -2.6162   0.0000   0.0000   0.0000   0.2386
   6.000   0.6839   0.01392   0.00651   0.0045  0.1302  1.0000  -2.7259   0.0000   0.0000   0.0000   0.2384
   6.100   0.6944   0.01407   0.00668   0.0047  0.1238  1.0000  -2.8400   0.0000   0.0000   0.0000   0.2383
   6.200   0.7040   0.01443   0.00701   0.0048  0.1176  1.0000  -2.9567   0.0000   0.0000   0.0000   0.2381
   6.300   0.7146   0.01459   0.00723   0.0049  0.1123  1.0000  -3.0738   0.0000   0.0000   0.0000   0.2379
   6.400   0.7249   0.01478   0.00742   0.0051  0.1066  1.0000  -3.1920   0.0000   0.0000   0.0000   0.2378
   6.500   0.7344   0.01518   0.00776   0.0052  0.1011  1.0000  -3.3037   0.0000   0.0000   0.0000   0.2375
   6.600   0.7450   0.01531   0.00796   0.0053  0.0959  1.0000  -3.4247   0.0000   0.0000   0.0000   0.2374
   6.700   0.7551   0.01555   0.00818   0.0054  0.0908  1.0000  -3.5457   0.0000   0.0000   0.0000   0.2373
   6.800   0.7646   0.01593   0.00855   0.0056  0.0859  1.0000  -3.6591   0.0000   0.0000   0.0000   0.2370
   6.900   0.7750   0.01614   0.00881   0.0058  0.0814  1.0000  -3.7799   0.0000   0.0000   0.0000   0.2368
   7.000   0.7848   0.01644   0.00909   0.0059  0.0773  1.0000  -3.9004   0.0000   0.0000   0.0000   0.2366
   7.100   0.7939   0.01697   0.00960   0.0061  0.0735  1.0000  -4.0089   0.0000   0.0000   0.0000   0.2363
   7.200   0.8042   0.01723   0.00993   0.0063  0.0700  1.0000  -4.1281   0.0000   0.0000   0.0000   0.2361
   7.300   0.8140   0.01753   0.01025   0.0065  0.0668  1.0000  -4.2493   0.0000   0.0000   0.0000   0.2359
   7.400   0.8232   0.01802   0.01070   0.0067  0.0640  1.0000  -4.3648   0.0000   0.0000   0.0000   0.2357
   7.500   0.8321   0.01866   0.01136   0.0070  0.0615  1.0000  -4.4691   0.0000   0.0000   0.0000   0.2353
   7.600   0.8421   0.01899   0.01177   0.0072  0.0594  1.0000  -4.5870   0.0000   0.0000   0.0000   0.2350
   7.700   0.8519   0.01934   0.01216   0.0074  0.0571  1.0000  -4.7080   0.0000   0.0000   0.0000   0.2348
   7.800   0.8616   0.01966   0.01253   0.0075  0.0550  1.0000  -4.8322   0.0000   0.0000   0.0000   0.2346
   7.900   0.8707   0.02012   0.01297   0.0077  0.0531  1.0000  -4.9527   0.0000   0.0000   0.0000   0.2344
   8.000   0.8787   0.02105   0.01390   0.0080  0.0511  1.0000  -5.0505   0.0000   0.0000   0.0000   0.2341
   8.100   0.8886   0.02135   0.01430   0.0082  0.0498  1.0000  -5.1733   0.0000   0.0000   0.0000   0.2339
   8.200   0.8982   0.02179   0.01484   0.0084  0.0485  1.0000  -5.2896   0.0000   0.0000   0.0000   0.2336
   8.300   0.9076   0.02227   0.01539   0.0086  0.0472  1.0000  -5.4060   0.0000   0.0000   0.0000   0.2333
   8.400   0.9170   0.02275   0.01593   0.0089  0.0460  1.0000  -5.5243   0.0000   0.0000   0.0000   0.2331
   8.500   0.9262   0.02322   0.01644   0.0091  0.0448  1.0000  -5.6450   0.0000   0.0000   0.0000   0.2328
   8.600   0.9352   0.02374   0.01698   0.0093  0.0438  1.0000  -5.7662   0.0000   0.0000   0.0000   0.2326
   8.700   0.9437   0.02445   0.01770   0.0095  0.0426  1.0000  -5.8803   0.0000   0.0000   0.0000   0.2324
   8.800   0.9500   0.02608   0.01940   0.0097  0.0413  1.0000  -5.9459   0.0000   0.0000   0.0000   0.2321
   8.900   0.9597   0.02621   0.01968   0.0099  0.0403  1.0000  -6.0723   0.0000   0.0000   0.0000   0.2318
   9.000   0.9689   0.02648   0.02007   0.0101  0.0388  1.0000  -6.1958   0.0000   0.0000   0.0000   0.2316
   9.100   0.9780   0.02674   0.02041   0.0103  0.0371  1.0000  -6.3261   0.0000   0.0000   0.0000   0.2315
   9.200   0.9870   0.02693   0.02062   0.0104  0.0355  1.0000  -6.4668   0.0000   0.0000   0.0000   0.2313
   9.300   0.9958   0.02710   0.02074   0.0104  0.0339  1.0000  -6.6224   0.0000   0.0000   0.0000   0.2313
   9.400   1.0011   0.02853   0.02223   0.0106  0.0322  1.0000  -6.6953   0.0000   0.0000   0.0000   0.2310
   9.500   1.0108   0.02838   0.02223   0.0107  0.0306  1.0000  -6.8378   0.0000   0.0000   0.0000   0.2309
   9.600   1.0194   0.02862   0.02257   0.0109  0.0289  1.0000  -6.9612   0.0000   0.0000   0.0000   0.2307
   9.700   1.0278   0.02894   0.02297   0.0110  0.0274  1.0000  -7.0838   0.0000   0.0000   0.0000   0.2305
   9.800   1.0357   0.02929   0.02329   0.0111  0.0260  1.0000  -7.2114   0.0000   0.0000   0.0000   0.2304
   9.900   1.0380   0.03124   0.02534   0.0114  0.0244  1.0000  -7.2072   0.0000   0.0000   0.0000   0.2300
  10.000   1.0455   0.03169   0.02601   0.0117  0.0228  1.0000  -7.2519   0.0000   0.0000   0.0000   0.2297
  10.100   1.0519   0.03238   0.02683   0.0119  0.0211  1.0000  -7.2922   0.0000   0.0000   0.0000   0.2294
  10.200   1.0587   0.03287   0.02735   0.0120  0.0198  1.0000  -7.3731   0.0000   0.0000   0.0000   0.2292
  10.300   1.0643   0.03362   0.02809   0.0122  0.0188  1.0000  -7.4512   0.0000   0.0000   0.0000   0.2290
  10.400   1.0636   0.03580   0.03040   0.0124  0.0180  1.0000  -7.4077   0.0000   0.0000   0.0000   0.2287
  10.500   1.0625   0.03790   0.03271   0.0127  0.0176  1.0000  -7.3447   0.0000   0.0000   0.0000   0.2283
  10.600   1.0651   0.03908   0.03408   0.0129  0.0172  1.0000  -7.3484   0.0000   0.0000   0.0000   0.2281
  10.700   1.0660   0.04050   0.03569   0.0130  0.0169  1.0000  -7.3378   0.0000   0.0000   0.0000   0.2278
  10.800   1.0654   0.04206   0.03742   0.0131  0.0167  1.0000  -7.3196   0.0000   0.0000   0.0000   0.2277
  10.900   1.0636   0.04370   0.03922   0.0131  0.0165  1.0000  -7.2960   0.0000   0.0000   0.0000   0.2275
  11.000   1.0604   0.04540   0.04107   0.0129  0.0164  1.0000  -7.2679   0.0000   0.0000   0.0000   0.2275
  11.100   1.0554   0.04703   0.04282   0.0129  0.0163  1.0000  -7.2368   0.0000   0.0000   0.0000   0.2274
  11.200   1.0495   0.04877   0.04468   0.0124  0.0163  1.0000  -7.2018   0.0000   0.0000   0.0000   0.2277
  11.300   1.0431   0.05073   0.04674   0.0112  0.0162  1.0000  -7.1619   0.0000   0.0000   0.0000   0.2286
  11.400   1.0366   0.05296   0.04908   0.0094  0.0163  1.0000  -7.1165   0.0000   0.0000   0.0000   0.2301
  11.500   1.0299   0.05549   0.05170   0.0071  0.0163  1.0000  -7.0649   0.0000   0.0000   0.0000   0.2321
  11.600   1.0231   0.05826   0.05456   0.0045  0.0163  1.0000  -7.0074   0.0000   0.0000   0.0000   0.2345
  11.700   1.0161   0.06129   0.05767   0.0017  0.0164  1.0000  -6.9437   0.0000   0.0000   0.0000   0.2371
  11.800   1.0087   0.06450   0.06096  -0.0013  0.0165  1.0000  -6.8741   0.0000   0.0000   0.0000   0.2399
  11.900   1.0010   0.06785   0.06438  -0.0042  0.0166  1.0000  -6.7992   0.0000   0.0000   0.0000   0.2427
  12.000   0.9930   0.07134   0.06793  -0.0072  0.0167  1.0000  -6.7187   0.0000   0.0000   0.0000   0.2456
  12.100   0.9847   0.07494   0.07159  -0.0101  0.0168  1.0000  -6.6325   0.0000   0.0000   0.0000   0.2485
  12.200   0.9760   0.07864   0.07534  -0.0129  0.0170  1.0000  -6.5405   0.0000   0.0000   0.0000   0.2514
  12.300   0.9669   0.08241   0.07915  -0.0157  0.0171  1.0000  -6.4426   0.0000   0.0000   0.0000   0.2543
  12.400   0.9575   0.08622   0.08299  -0.0183  0.0173  1.0000  -6.3385   0.0000   0.0000   0.0000   0.2572
  12.500   0.9476   0.09013   0.08692  -0.0208  0.0174  1.0000  -6.2259   0.0000   0.0000   0.0000   0.2600
  12.600   0.9372   0.09416   0.09097  -0.0233  0.0176  1.0000  -6.1019   0.0000   0.0000   0.0000   0.2629
  12.700   0.8285   0.12752   0.12443  -0.0411  0.0260  1.0000  -4.1382   0.0000   0.0000   0.0000   0.2894
  12.800   0.8234   0.13092   0.12781  -0.0426  0.0259  1.0000  -4.0128   0.0000   0.0000   0.0000   0.2916
  12.900   0.8181   0.13447   0.13134  -0.0441  0.0258  1.0000  -3.8746   0.0000   0.0000   0.0000   0.2938
  13.000   0.8129   0.13809   0.13494  -0.0457  0.0258  1.0000  -3.7282   0.0000   0.0000   0.0000   0.2961
  13.100   0.8081   0.14172   0.13855  -0.0473  0.0258  1.0000  -3.5792   0.0000   0.0000   0.0000   0.2984
  13.200   0.8040   0.14523   0.14204  -0.0488  0.0258  1.0000  -3.4363   0.0000   0.0000   0.0000   0.3006
  13.300   0.8010   0.14846   0.14526  -0.0501  0.0259  1.0000  -3.3099   0.0000   0.0000   0.0000   0.3026
  13.400   0.7990   0.15132   0.14811  -0.0512  0.0258  1.0000  -3.2086   0.0000   0.0000   0.0000   0.3041
  13.500   0.7983   0.15375   0.15053  -0.0522  0.0257  1.0000  -3.1364   0.0000   0.0000   0.0000   0.3053
  13.600   0.7986   0.15578   0.15255  -0.0529  0.0256  1.0000  -3.0928   0.0000   0.0000   0.0000   0.3061
  13.700   0.7996   0.15747   0.15424  -0.0534  0.0254  1.0000  -3.0740   0.0000   0.0000   0.0000   0.3066
  13.800   0.8011   0.15886   0.15564  -0.0537  0.0251  1.0000  -3.0787   0.0000   0.0000   0.0000   0.3067
  13.900   0.7801   0.17191   0.16859  -0.0584  0.0400  1.0000  -2.2752   0.0000   0.0000   0.0000   0.3154
  14.000   0.7780   0.17424   0.17091  -0.0604  0.0390  1.0000  -2.1916   0.0000   0.0000   0.0000   0.3181
  14.100   0.7785   0.17625   0.17292  -0.0615  0.0381  1.0000  -2.1476   0.0000   0.0000   0.0000   0.3195
  14.200   0.7796   0.17813   0.17479  -0.0624  0.0374  1.0000  -2.1167   0.0000   0.0000   0.0000   0.3205
  14.300   0.7810   0.17992   0.17658  -0.0632  0.0368  1.0000  -2.0934   0.0000   0.0000   0.0000   0.3213
  14.400   0.7827   0.18165   0.17830  -0.0639  0.0363  1.0000  -2.0759   0.0000   0.0000   0.0000   0.3219
  14.500   0.7847   0.18331   0.17996  -0.0646  0.0358  1.0000  -2.0639   0.0000   0.0000   0.0000   0.3225
  14.600   0.7868   0.18490   0.18156  -0.0652  0.0353  1.0000  -2.0575   0.0000   0.0000   0.0000   0.3229
  14.700   0.7893   0.18641   0.18309  -0.0657  0.0348  1.0000  -2.0581   0.0000   0.0000   0.0000   0.3232
  14.800   0.7919   0.18786   0.18454  -0.0662  0.0344  1.0000  -2.0647   0.0000   0.0000   0.0000   0.3234
  14.900   0.7949   0.18925   0.18594  -0.0665  0.0341  1.0000  -2.0790   0.0000   0.0000   0.0000   0.3233
  15.000   0.7984   0.19059   0.18728  -0.0666  0.0337  1.0000  -2.1025   0.0000   0.0000   0.0000   0.3230


