xflr5 v6.61

 Calculated polar for: S8025 (8%)

 1 1 Reynolds number fixed          Mach number fixed         

 xtrf =   1.000 (top)        1.000 (bottom)
 Mach =   0.000     Re =     0.250 e 6     Ncrit =   9.000

  alpha     CL        CD       CDp       Cm    Top Xtr Bot Xtr   Cpmin    Chinge    XCp    
 ------- -------- --------- --------- -------- ------- ------- -------- --------- ---------
 -10.000  -0.6783   0.11527   0.11216   0.0344  1.0000  0.0336  -1.9859   0.0000   0.0000   0.0000   0.2955
  -9.900  -0.6783   0.11339   0.11030   0.0335  1.0000  0.0341  -2.0044   0.0000   0.0000   0.0000   0.2942
  -7.400  -0.7346   0.03874   0.03411  -0.0119  1.0000  0.0223  -3.9539   0.0000   0.0000   0.0000   0.2289
  -7.200  -0.7247   0.03193   0.02640  -0.0104  1.0000  0.0148  -4.4597   0.0000   0.0000   0.0000   0.2306
  -7.100  -0.7146   0.03173   0.02609  -0.0102  1.0000  0.0146  -4.3739   0.0000   0.0000   0.0000   0.2309
  -7.000  -0.7083   0.02972   0.02397  -0.0099  1.0000  0.0141  -4.3859   0.0000   0.0000   0.0000   0.2311
  -6.900  -0.7017   0.02791   0.02196  -0.0097  1.0000  0.0138  -4.3988   0.0000   0.0000   0.0000   0.2314
  -6.800  -0.6941   0.02643   0.02031  -0.0094  1.0000  0.0136  -4.3933   0.0000   0.0000   0.0000   0.2317
  -6.700  -0.6859   0.02514   0.01884  -0.0090  1.0000  0.0134  -4.3782   0.0000   0.0000   0.0000   0.2321
  -6.600  -0.6773   0.02398   0.01751  -0.0087  1.0000  0.0132  -4.3559   0.0000   0.0000   0.0000   0.2325
  -6.500  -0.6683   0.02293   0.01631  -0.0083  1.0000  0.0130  -4.3272   0.0000   0.0000   0.0000   0.2329
  -6.400  -0.6591   0.02196   0.01522  -0.0080  1.0000  0.0129  -4.2928   0.0000   0.0000   0.0000   0.2333
  -6.300  -0.6497   0.02108   0.01422  -0.0076  1.0000  0.0129  -4.2531   0.0000   0.0000   0.0000   0.2338
  -6.200  -0.6402   0.02027   0.01331  -0.0073  1.0000  0.0128  -4.2086   0.0000   0.0000   0.0000   0.2342
  -6.100  -0.6306   0.01952   0.01247  -0.0069  1.0000  0.0128  -4.1599   0.0000   0.0000   0.0000   0.2346
  -6.000  -0.6210   0.01883   0.01170  -0.0066  1.0000  0.0128  -4.1076   0.0000   0.0000   0.0000   0.2351
  -5.900  -0.6114   0.01818   0.01099  -0.0062  1.0000  0.0129  -4.0526   0.0000   0.0000   0.0000   0.2355
  -5.800  -0.6017   0.01758   0.01033  -0.0059  1.0000  0.0130  -3.9951   0.0000   0.0000   0.0000   0.2360
  -5.700  -0.5920   0.01701   0.00971  -0.0056  1.0000  0.0132  -3.9354   0.0000   0.0000   0.0000   0.2364
  -5.600  -0.5823   0.01649   0.00914  -0.0053  1.0000  0.0134  -3.8739   0.0000   0.0000   0.0000   0.2369
  -5.500  -0.5725   0.01601   0.00861  -0.0050  1.0000  0.0137  -3.8107   0.0000   0.0000   0.0000   0.2373
  -5.400  -0.5626   0.01557   0.00812  -0.0047  1.0000  0.0140  -3.7458   0.0000   0.0000   0.0000   0.2378
  -5.300  -0.5525   0.01519   0.00769  -0.0044  1.0000  0.0144  -3.6775   0.0000   0.0000   0.0000   0.2382
  -5.200  -0.5433   0.01450   0.00694  -0.0040  1.0000  0.0152  -3.6474   0.0000   0.0000   0.0000   0.2387
  -5.100  -0.5336   0.01400   0.00640  -0.0038  1.0000  0.0166  -3.5901   0.0000   0.0000   0.0000   0.2392
  -5.000  -0.5233   0.01367   0.00600  -0.0036  1.0000  0.0181  -3.5067   0.0000   0.0000   0.0000   0.2395
  -4.900  -0.5129   0.01335   0.00563  -0.0033  1.0000  0.0208  -3.4569   0.0000   0.0000   0.0000   0.2400
  -4.800  -0.5041   0.01240   0.00489  -0.0028  1.0000  0.0464  -3.5069   0.0000   0.0000   0.0000   0.2408
  -4.700  -0.4944   0.01197   0.00464  -0.0027  1.0000  0.0745  -3.4311   0.0000   0.0000   0.0000   0.2411
  -4.600  -0.4842   0.01174   0.00450  -0.0026  1.0000  0.0910  -3.3153   0.0000   0.0000   0.0000   0.2412
  -4.500  -0.4740   0.01152   0.00439  -0.0025  1.0000  0.1086  -3.1923   0.0000   0.0000   0.0000   0.2414
  -4.400  -0.4638   0.01133   0.00431  -0.0024  1.0000  0.1288  -3.0659   0.0000   0.0000   0.0000   0.2415
  -4.300  -0.4535   0.01115   0.00422  -0.0023  1.0000  0.1478  -2.9404   0.0000   0.0000   0.0000   0.2416
  -4.200  -0.4432   0.01095   0.00410  -0.0022  1.0000  0.1652  -2.8180   0.0000   0.0000   0.0000   0.2418
  -4.100  -0.4330   0.01073   0.00396  -0.0021  1.0000  0.1817  -2.6983   0.0000   0.0000   0.0000   0.2420
  -4.000  -0.4228   0.01051   0.00382  -0.0020  1.0000  0.1980  -2.5799   0.0000   0.0000   0.0000   0.2423
  -3.900  -0.4125   0.01032   0.00369  -0.0018  1.0000  0.2151  -2.4622   0.0000   0.0000   0.0000   0.2426
  -3.800  -0.4022   0.01013   0.00356  -0.0017  1.0000  0.2333  -2.3455   0.0000   0.0000   0.0000   0.2429
  -3.700  -0.3918   0.00995   0.00344  -0.0015  1.0000  0.2524  -2.2300   0.0000   0.0000   0.0000   0.2432
  -3.600  -0.3815   0.00977   0.00333  -0.0014  1.0000  0.2721  -2.1160   0.0000   0.0000   0.0000   0.2435
  -3.500  -0.3713   0.00958   0.00323  -0.0012  1.0000  0.2925  -2.0043   0.0000   0.0000   0.0000   0.2439
  -3.400  -0.3611   0.00940   0.00313  -0.0011  1.0000  0.3129  -1.8949   0.0000   0.0000   0.0000   0.2443
  -3.300  -0.3509   0.00923   0.00300  -0.0009  1.0000  0.3345  -1.7933   0.0000   0.0000   0.0000   0.2447
  -3.200  -0.3407   0.00906   0.00292  -0.0007  1.0000  0.3572  -1.7090   0.0000   0.0000   0.0000   0.2452
  -3.100  -0.3306   0.00889   0.00284  -0.0005  1.0000  0.3807  -1.6260   0.0000   0.0000   0.0000   0.2458
  -3.000  -0.3204   0.00873   0.00277  -0.0003  1.0000  0.4045  -1.5443   0.0000   0.0000   0.0000   0.2464
  -2.900  -0.3103   0.00858   0.00271  -0.0001  1.0000  0.4285  -1.4638   0.0000   0.0000   0.0000   0.2471
  -2.800  -0.3002   0.00843   0.00265   0.0001  1.0000  0.4522  -1.3846   0.0000   0.0000   0.0000   0.2479
  -2.700  -0.2901   0.00829   0.00260   0.0004  1.0000  0.4765  -1.3067   0.0000   0.0000   0.0000   0.2488
  -2.600  -0.2802   0.00815   0.00255   0.0007  1.0000  0.5020  -1.2304   0.0000   0.0000   0.0000   0.2499
  -2.500  -0.2703   0.00802   0.00252   0.0010  1.0000  0.5284  -1.1555   0.0000   0.0000   0.0000   0.2511
  -2.400  -0.2604   0.00789   0.00248   0.0013  1.0000  0.5545  -1.0821   0.0000   0.0000   0.0000   0.2525
  -2.300  -0.2505   0.00776   0.00246   0.0016  1.0000  0.5800  -1.0100   0.0000   0.0000   0.0000   0.2541
  -2.200  -0.2407   0.00765   0.00243   0.0020  1.0000  0.6047  -0.9393   0.0000   0.0000   0.0000   0.2558
  -2.100  -0.2309   0.00753   0.00241   0.0023  1.0000  0.6279  -0.8702   0.0000   0.0000   0.0000   0.2578
  -2.000  -0.2212   0.00742   0.00239   0.0027  1.0000  0.6493  -0.8156   0.0000   0.0000   0.0000   0.2601
  -1.900  -0.2114   0.00732   0.00237   0.0031  1.0000  0.6696  -0.7876   0.0000   0.0000   0.0000   0.2626
  -1.800  -0.2017   0.00723   0.00235   0.0035  1.0000  0.6895  -0.7619   0.0000   0.0000   0.0000   0.2653
  -1.700  -0.1920   0.00714   0.00229   0.0040  1.0000  0.7097  -0.7363   0.0000   0.0000   0.0000   0.2684
  -1.600  -0.1824   0.00706   0.00228   0.0044  1.0000  0.7301  -0.7110   0.0000   0.0000   0.0000   0.2720
  -1.500  -0.1729   0.00697   0.00228   0.0049  1.0000  0.7507  -0.6861   0.0000   0.0000   0.0000   0.2763
  -1.400  -0.1636   0.00688   0.00228   0.0055  1.0000  0.7715  -0.6615   0.0000   0.0000   0.0000   0.2813
  -1.300  -0.1545   0.00680   0.00228   0.0061  1.0000  0.7925  -0.6372   0.0000   0.0000   0.0000   0.2872
  -1.200  -0.1454   0.00673   0.00228   0.0067  1.0000  0.8138  -0.6132   0.0000   0.0000   0.0000   0.2940
  -1.100  -0.1364   0.00666   0.00229   0.0073  1.0000  0.8353  -0.5894   0.0000   0.0000   0.0000   0.3019
  -1.000  -0.1273   0.00660   0.00230   0.0080  1.0000  0.8577  -0.5660   0.0000   0.0000   0.0000   0.3109
  -0.900  -0.1176   0.00655   0.00232   0.0086  1.0000  0.8805  -0.5444   0.0000   0.0000   0.0000   0.3209
  -0.800  -0.1060   0.00652   0.00234   0.0087  1.0000  0.9042  -0.5210   0.0000   0.0000   0.0000   0.3305
  -0.700  -0.0887   0.00652   0.00236   0.0077  0.9970  0.9270  -0.4918   0.0000   0.0000   0.0000   0.3346
  -0.600  -0.0645   0.00652   0.00238   0.0051  0.9870  0.9449  -0.4556   0.0000   0.0000   0.0000   0.3272
  -0.500  -0.0396   0.00654   0.00238   0.0024  0.9734  0.9587  -0.4192   0.0000   0.0000   0.0000   0.3082
  -0.400  -0.0147   0.00655   0.00238  -0.0003  0.9551  0.9685  -0.3899   0.0000   0.0000   0.0000   0.2236
  -0.300   0.0096   0.00656   0.00235  -0.0029  0.9317  0.9759  -0.3979   0.0000   0.0000   0.0000   0.5546
  -0.200   0.0318   0.00658   0.00231  -0.0049  0.9041  0.9828  -0.4206   0.0000   0.0000   0.0000   0.4051
  -0.100   0.0512   0.00661   0.00226  -0.0064  0.8739  0.9903  -0.4415   0.0000   0.0000   0.0000   0.3733
   0.000   0.0692   0.00665   0.00221  -0.0075  0.8439  0.9983  -0.4616   0.0000   0.0000   0.0000   0.3576
   0.100   0.0798   0.00672   0.00216  -0.0072  0.8170  1.0000  -0.4774   0.0000   0.0000   0.0000   0.3394
   0.200   0.0886   0.00680   0.00213  -0.0066  0.7925  1.0000  -0.4918   0.0000   0.0000   0.0000   0.3233
   0.300   0.0977   0.00688   0.00210  -0.0061  0.7701  1.0000  -0.5065   0.0000   0.0000   0.0000   0.3107
   0.400   0.1069   0.00696   0.00207  -0.0056  0.7495  1.0000  -0.5213   0.0000   0.0000   0.0000   0.3007
   0.500   0.1163   0.00705   0.00206  -0.0052  0.7303  1.0000  -0.5364   0.0000   0.0000   0.0000   0.2926
   0.600   0.1260   0.00712   0.00204  -0.0048  0.7120  1.0000  -0.5517   0.0000   0.0000   0.0000   0.2862
   0.700   0.1357   0.00720   0.00204  -0.0044  0.6946  1.0000  -0.5671   0.0000   0.0000   0.0000   0.2808
   0.800   0.1453   0.00729   0.00203  -0.0040  0.6776  1.0000  -0.5826   0.0000   0.0000   0.0000   0.2760
   0.900   0.1552   0.00736   0.00203  -0.0037  0.6601  1.0000  -0.5982   0.0000   0.0000   0.0000   0.2722
   1.000   0.1651   0.00744   0.00203  -0.0034  0.6434  1.0000  -0.6148   0.0000   0.0000   0.0000   0.2688
   1.100   0.1748   0.00754   0.00202  -0.0031  0.6270  1.0000  -0.6323   0.0000   0.0000   0.0000   0.2657
   1.200   0.1849   0.00761   0.00203  -0.0028  0.6101  1.0000  -0.6500   0.0000   0.0000   0.0000   0.2632
   1.300   0.1949   0.00769   0.00205  -0.0025  0.5944  1.0000  -0.6680   0.0000   0.0000   0.0000   0.2610
   1.400   0.2049   0.00779   0.00205  -0.0023  0.5784  1.0000  -0.6878   0.0000   0.0000   0.0000   0.2589
   1.500   0.2151   0.00786   0.00206  -0.0020  0.5629  1.0000  -0.7101   0.0000   0.0000   0.0000   0.2573
   1.600   0.2251   0.00796   0.00207  -0.0018  0.5483  1.0000  -0.7324   0.0000   0.0000   0.0000   0.2556
   1.700   0.2354   0.00803   0.00209  -0.0016  0.5334  1.0000  -0.7552   0.0000   0.0000   0.0000   0.2544
   1.800   0.2455   0.00813   0.00211  -0.0013  0.5198  1.0000  -0.7779   0.0000   0.0000   0.0000   0.2531
   1.900   0.2559   0.00820   0.00213  -0.0011  0.5058  1.0000  -0.8009   0.0000   0.0000   0.0000   0.2521
   2.000   0.2661   0.00830   0.00216  -0.0009  0.4932  1.0000  -0.8264   0.0000   0.0000   0.0000   0.2511
   2.100   0.2765   0.00838   0.00219  -0.0007  0.4798  1.0000  -0.8526   0.0000   0.0000   0.0000   0.2503
   2.200   0.2868   0.00848   0.00222  -0.0005  0.4675  1.0000  -0.8788   0.0000   0.0000   0.0000   0.2494
   2.300   0.2972   0.00856   0.00226  -0.0004  0.4545  1.0000  -0.9054   0.0000   0.0000   0.0000   0.2488
   2.400   0.3075   0.00867   0.00230  -0.0002  0.4425  1.0000  -0.9319   0.0000   0.0000   0.0000   0.2480
   2.500   0.3181   0.00874   0.00234  -0.0000  0.4303  1.0000  -0.9589   0.0000   0.0000   0.0000   0.2475
   2.700   0.3390   0.00893   0.00244   0.0003  0.4080  1.0000  -1.0132   0.0000   0.0000   0.0000   0.2465
   2.800   0.3493   0.00904   0.00248   0.0004  0.3968  1.0000  -1.0405   0.0000   0.0000   0.0000   0.2460
   2.900   0.3599   0.00913   0.00254   0.0006  0.3863  1.0000  -1.0681   0.0000   0.0000   0.0000   0.2456
   3.000   0.3704   0.00923   0.00265   0.0007  0.3750  1.0000  -1.0959   0.0000   0.0000   0.0000   0.2452
   3.100   0.3808   0.00935   0.00271   0.0009  0.3646  1.0000  -1.1251   0.0000   0.0000   0.0000   0.2448
   3.200   0.3914   0.00943   0.00278   0.0010  0.3537  1.0000  -1.1572   0.0000   0.0000   0.0000   0.2444
   3.400   0.4124   0.00964   0.00291   0.0013  0.3333  1.0000  -1.2277   0.0000   0.0000   0.0000   0.2438
   3.500   0.4228   0.00976   0.00297   0.0014  0.3230  1.0000  -1.2709   0.0000   0.0000   0.0000   0.2435
   3.600   0.4334   0.00987   0.00306   0.0016  0.3133  1.0000  -1.3146   0.0000   0.0000   0.0000   0.2432
   3.700   0.4440   0.00997   0.00313   0.0017  0.3034  1.0000  -1.3589   0.0000   0.0000   0.0000   0.2430
   3.800   0.4544   0.01011   0.00321   0.0018  0.2943  1.0000  -1.4030   0.0000   0.0000   0.0000   0.2427
   3.900   0.4651   0.01019   0.00330   0.0019  0.2851  1.0000  -1.4483   0.0000   0.0000   0.0000   0.2425
   4.000   0.4755   0.01033   0.00338   0.0020  0.2760  1.0000  -1.4934   0.0000   0.0000   0.0000   0.2423
   4.100   0.4861   0.01044   0.00348   0.0022  0.2675  1.0000  -1.5428   0.0000   0.0000   0.0000   0.2421
   4.200   0.4967   0.01055   0.00357   0.0023  0.2586  1.0000  -1.5970   0.0000   0.0000   0.0000   0.2419
   4.300   0.5070   0.01073   0.00367   0.0024  0.2499  1.0000  -1.6507   0.0000   0.0000   0.0000   0.2416
   4.400   0.5178   0.01080   0.00378   0.0025  0.2418  1.0000  -1.7063   0.0000   0.0000   0.0000   0.2415
   4.500   0.5283   0.01093   0.00392   0.0026  0.2335  1.0000  -1.7620   0.0000   0.0000   0.0000   0.2413
   4.600   0.5387   0.01109   0.00405   0.0027  0.2260  1.0000  -1.8177   0.0000   0.0000   0.0000   0.2411
   4.700   0.5494   0.01119   0.00417   0.0029  0.2183  1.0000  -1.8742   0.0000   0.0000   0.0000   0.2409
   4.800   0.5598   0.01136   0.00428   0.0030  0.2106  1.0000  -1.9305   0.0000   0.0000   0.0000   0.2407
   4.900   0.5704   0.01150   0.00442   0.0031  0.2032  1.0000  -1.9872   0.0000   0.0000   0.0000   0.2406
   5.000   0.5809   0.01162   0.00454   0.0032  0.1954  1.0000  -2.0449   0.0000   0.0000   0.0000   0.2404
   5.100   0.5910   0.01185   0.00469   0.0033  0.1876  1.0000  -2.1014   0.0000   0.0000   0.0000   0.2402
   5.200   0.6019   0.01193   0.00482   0.0034  0.1804  1.0000  -2.1604   0.0000   0.0000   0.0000   0.2401
   5.300   0.6122   0.01210   0.00495   0.0035  0.1730  1.0000  -2.2190   0.0000   0.0000   0.0000   0.2399
   5.400   0.6226   0.01229   0.00512   0.0036  0.1659  1.0000  -2.2769   0.0000   0.0000   0.0000   0.2397
   5.500   0.6332   0.01240   0.00525   0.0037  0.1586  1.0000  -2.3368   0.0000   0.0000   0.0000   0.2396
   5.600   0.6432   0.01266   0.00543   0.0039  0.1511  1.0000  -2.3950   0.0000   0.0000   0.0000   0.2394
   5.700   0.6540   0.01276   0.00558   0.0040  0.1446  1.0000  -2.4553   0.0000   0.0000   0.0000   0.2393
   5.800   0.6643   0.01293   0.00572   0.0041  0.1377  1.0000  -2.5218   0.0000   0.0000   0.0000   0.2391
   5.900   0.6745   0.01316   0.00593   0.0042  0.1312  1.0000  -2.6309   0.0000   0.0000   0.0000   0.2390
   6.000   0.6851   0.01329   0.00609   0.0043  0.1249  1.0000  -2.7447   0.0000   0.0000   0.0000   0.2388
   6.100   0.6950   0.01357   0.00634   0.0044  0.1188  1.0000  -2.8597   0.0000   0.0000   0.0000   0.2386
   6.200   0.7054   0.01376   0.00657   0.0045  0.1132  1.0000  -2.9776   0.0000   0.0000   0.0000   0.2385
   6.300   0.7158   0.01394   0.00675   0.0047  0.1075  1.0000  -3.0964   0.0000   0.0000   0.0000   0.2383
   6.400   0.7254   0.01431   0.00705   0.0048  0.1016  1.0000  -3.2089   0.0000   0.0000   0.0000   0.2381
   6.500   0.7361   0.01442   0.00723   0.0049  0.0966  1.0000  -3.3307   0.0000   0.0000   0.0000   0.2380
   6.600   0.7463   0.01463   0.00743   0.0050  0.0914  1.0000  -3.4522   0.0000   0.0000   0.0000   0.2378
   6.700   0.7559   0.01499   0.00776   0.0052  0.0865  1.0000  -3.5668   0.0000   0.0000   0.0000   0.2376
   6.800   0.7664   0.01517   0.00799   0.0053  0.0820  1.0000  -3.6890   0.0000   0.0000   0.0000   0.2374
   6.900   0.7764   0.01543   0.00824   0.0054  0.0777  1.0000  -3.8109   0.0000   0.0000   0.0000   0.2373
   7.000   0.7857   0.01589   0.00868   0.0056  0.0735  1.0000  -3.9224   0.0000   0.0000   0.0000   0.2370
   7.100   0.7960   0.01612   0.00896   0.0058  0.0699  1.0000  -4.0443   0.0000   0.0000   0.0000   0.2368
   7.200   0.8060   0.01639   0.00925   0.0060  0.0665  1.0000  -4.1673   0.0000   0.0000   0.0000   0.2366
   7.300   0.8147   0.01699   0.00979   0.0062  0.0630  1.0000  -4.2767   0.0000   0.0000   0.0000   0.2363
   7.400   0.8245   0.01736   0.01022   0.0064  0.0607  1.0000  -4.3927   0.0000   0.0000   0.0000   0.2360
   7.500   0.8345   0.01767   0.01059   0.0066  0.0583  1.0000  -4.5135   0.0000   0.0000   0.0000   0.2357
   7.600   0.8443   0.01797   0.01091   0.0068  0.0559  1.0000  -4.6382   0.0000   0.0000   0.0000   0.2355
   7.700   0.8538   0.01833   0.01127   0.0069  0.0538  1.0000  -4.7642   0.0000   0.0000   0.0000   0.2353
   7.800   0.8615   0.01925   0.01217   0.0072  0.0513  1.0000  -4.8589   0.0000   0.0000   0.0000   0.2350
   7.900   0.8718   0.01944   0.01245   0.0074  0.0500  1.0000  -4.9871   0.0000   0.0000   0.0000   0.2348
   8.000   0.8817   0.01975   0.01285   0.0076  0.0484  1.0000  -5.1112   0.0000   0.0000   0.0000   0.2345
   8.100   0.8913   0.02015   0.01330   0.0078  0.0470  1.0000  -5.2329   0.0000   0.0000   0.0000   0.2343
   8.200   0.9008   0.02054   0.01373   0.0080  0.0456  1.0000  -5.3568   0.0000   0.0000   0.0000   0.2341
   8.300   0.9102   0.02095   0.01416   0.0082  0.0444  1.0000  -5.4826   0.0000   0.0000   0.0000   0.2338
   8.400   0.9191   0.02146   0.01468   0.0084  0.0433  1.0000  -5.6056   0.0000   0.0000   0.0000   0.2336
   8.500   0.9272   0.02233   0.01557   0.0086  0.0421  1.0000  -5.7097   0.0000   0.0000   0.0000   0.2333
   8.600   0.9349   0.02343   0.01674   0.0090  0.0411  1.0000  -5.7965   0.0000   0.0000   0.0000   0.2329
   8.700   0.9446   0.02373   0.01716   0.0092  0.0403  1.0000  -5.9208   0.0000   0.0000   0.0000   0.2327
   8.800   0.9541   0.02406   0.01759   0.0094  0.0391  1.0000  -6.0460   0.0000   0.0000   0.0000   0.2325
   8.900   0.9635   0.02434   0.01795   0.0095  0.0376  1.0000  -6.1777   0.0000   0.0000   0.0000   0.2323
   9.000   0.9729   0.02449   0.01813   0.0096  0.0360  1.0000  -6.3240   0.0000   0.0000   0.0000   0.2322
   9.100   0.9821   0.02464   0.01827   0.0096  0.0345  1.0000  -6.4779   0.0000   0.0000   0.0000   0.2321
   9.200   0.9889   0.02560   0.01921   0.0098  0.0328  1.0000  -6.5866   0.0000   0.0000   0.0000   0.2319
   9.300   0.9975   0.02601   0.01975   0.0100  0.0315  1.0000  -6.7079   0.0000   0.0000   0.0000   0.2317
   9.400   1.0072   0.02606   0.01990   0.0101  0.0298  1.0000  -6.8534   0.0000   0.0000   0.0000   0.2316
   9.500   1.0163   0.02626   0.02017   0.0102  0.0282  1.0000  -6.9909   0.0000   0.0000   0.0000   0.2314
   9.600   1.0250   0.02653   0.02048   0.0103  0.0269  1.0000  -7.1294   0.0000   0.0000   0.0000   0.2313
   9.700   1.0324   0.02710   0.02104   0.0104  0.0256  1.0000  -7.2487   0.0000   0.0000   0.0000   0.2311
   9.800   1.0371   0.02850   0.02258   0.0107  0.0241  1.0000  -7.2771   0.0000   0.0000   0.0000   0.2307
   9.900   1.0455   0.02886   0.02310   0.0109  0.0223  1.0000  -7.3524   0.0000   0.0000   0.0000   0.2305
  10.000   1.0534   0.02924   0.02355   0.0111  0.0205  1.0000  -7.4341   0.0000   0.0000   0.0000   0.2303
  10.100   1.0607   0.02967   0.02396   0.0112  0.0191  1.0000  -7.5363   0.0000   0.0000   0.0000   0.2301
  10.200   1.0591   0.03222   0.02664   0.0116  0.0177  1.0000  -7.4503   0.0000   0.0000   0.0000   0.2296
  10.300   1.0659   0.03285   0.02745   0.0118  0.0170  1.0000  -7.4843   0.0000   0.0000   0.0000   0.2293
  10.400   1.0705   0.03392   0.02870   0.0121  0.0163  1.0000  -7.4955   0.0000   0.0000   0.0000   0.2290
  10.500   1.0742   0.03512   0.03004   0.0124  0.0157  1.0000  -7.5075   0.0000   0.0000   0.0000   0.2287
  10.600   1.0772   0.03635   0.03141   0.0126  0.0153  1.0000  -7.5233   0.0000   0.0000   0.0000   0.2284
  10.700   1.0795   0.03763   0.03283   0.0128  0.0150  1.0000  -7.5390   0.0000   0.0000   0.0000   0.2281
  10.800   1.0809   0.03896   0.03430   0.0129  0.0147  1.0000  -7.5519   0.0000   0.0000   0.0000   0.2279
  10.900   1.0814   0.04033   0.03580   0.0130  0.0145  1.0000  -7.5617   0.0000   0.0000   0.0000   0.2277
  11.000   1.0809   0.04176   0.03736   0.0131  0.0143  1.0000  -7.5663   0.0000   0.0000   0.0000   0.2275
  11.100   1.0794   0.04325   0.03897   0.0130  0.0142  1.0000  -7.5642   0.0000   0.0000   0.0000   0.2274
  11.200   1.0759   0.04473   0.04056   0.0130  0.0141  1.0000  -7.5528   0.0000   0.0000   0.0000   0.2273
  11.300   1.0711   0.04631   0.04225   0.0128  0.0141  1.0000  -7.5320   0.0000   0.0000   0.0000   0.2273
  11.400   1.0654   0.04812   0.04416   0.0119  0.0140  1.0000  -7.5012   0.0000   0.0000   0.0000   0.2279
  11.500   1.0592   0.05023   0.04638   0.0104  0.0141  1.0000  -7.4600   0.0000   0.0000   0.0000   0.2292
  11.600   1.0527   0.05269   0.04894   0.0083  0.0141  1.0000  -7.4078   0.0000   0.0000   0.0000   0.2310
  11.700   1.0456   0.05547   0.05182   0.0057  0.0141  1.0000  -7.3445   0.0000   0.0000   0.0000   0.2332
  11.800   1.0381   0.05856   0.05502   0.0028  0.0142  1.0000  -7.2699   0.0000   0.0000   0.0000   0.2358
  11.900   1.0300   0.06195   0.05849  -0.0003  0.0143  1.0000  -7.1845   0.0000   0.0000   0.0000   0.2386
  12.000   1.0213   0.06556   0.06219  -0.0035  0.0144  1.0000  -7.0888   0.0000   0.0000   0.0000   0.2416
  12.100   1.0111   0.06954   0.06627  -0.0068  0.0145  1.0000  -6.9729   0.0000   0.0000   0.0000   0.2449
  12.200   0.9998   0.07388   0.07068  -0.0104  0.0147  1.0000  -6.8398   0.0000   0.0000   0.0000   0.2485
  12.300   0.9879   0.07842   0.07530  -0.0139  0.0150  1.0000  -6.6960   0.0000   0.0000   0.0000   0.2521
  12.400   0.9753   0.08310   0.08004  -0.0174  0.0152  1.0000  -6.5444   0.0000   0.0000   0.0000   0.2558
  12.500   0.9624   0.08784   0.08483  -0.0206  0.0155  1.0000  -6.3870   0.0000   0.0000   0.0000   0.2594
  12.600   0.9492   0.09269   0.08972  -0.0238  0.0158  1.0000  -6.2229   0.0000   0.0000   0.0000   0.2631
  12.700   0.9359   0.09762   0.09468  -0.0269  0.0162  1.0000  -6.0530   0.0000   0.0000   0.0000   0.2667
  12.800   0.9228   0.10255   0.09963  -0.0298  0.0166  1.0000  -5.8785   0.0000   0.0000   0.0000   0.2704
  12.900   0.9098   0.10745   0.10454  -0.0326  0.0170  1.0000  -5.6994   0.0000   0.0000   0.0000   0.2739
  13.000   0.8974   0.11219   0.10926  -0.0351  0.0173  1.0000  -5.5193   0.0000   0.0000   0.0000   0.2773
  13.100   0.8843   0.11700   0.11407  -0.0375  0.0176  1.0000  -5.3205   0.0000   0.0000   0.0000   0.2806
  13.200   0.8672   0.12426   0.12136  -0.0411  0.0184  1.0000  -4.9696   0.0000   0.0000   0.0000   0.2858
  13.300   0.8012   0.14807   0.14502  -0.0507  0.0228  1.0000  -3.3378   0.0000   0.0000   0.0000   0.3033
  13.400   0.7983   0.15127   0.14821  -0.0520  0.0227  1.0000  -3.2100   0.0000   0.0000   0.0000   0.3052
  13.500   0.7960   0.15431   0.15123  -0.0533  0.0227  1.0000  -3.0937   0.0000   0.0000   0.0000   0.3069
  13.600   0.7944   0.15712   0.15403  -0.0544  0.0228  1.0000  -2.9933   0.0000   0.0000   0.0000   0.3085
  13.700   0.7933   0.15970   0.15661  -0.0554  0.0229  1.0000  -2.9078   0.0000   0.0000   0.0000   0.3098
  13.800   0.7929   0.16207   0.15897  -0.0562  0.0231  1.0000  -2.8388   0.0000   0.0000   0.0000   0.3108
  13.900   0.7930   0.16418   0.16108  -0.0569  0.0234  1.0000  -2.7893   0.0000   0.0000   0.0000   0.3116
  14.000   0.7940   0.16598   0.16287  -0.0573  0.0238  1.0000  -2.7665   0.0000   0.0000   0.0000   0.3120
  14.100   0.7968   0.17037   0.16730  -0.0559  0.0327  1.0000  -2.5688   0.0000   0.0000   0.0000   0.3100
  14.200   0.7968   0.17280   0.16973  -0.0565  0.0326  1.0000  -2.5315   0.0000   0.0000   0.0000   0.3108
  14.300   0.7951   0.17599   0.17288  -0.0573  0.0324  1.0000  -2.4696   0.0000   0.0000   0.0000   0.3118
  14.400   0.7962   0.17814   0.17503  -0.0581  0.0324  1.0000  -2.4348   0.0000   0.0000   0.0000   0.3127
  14.500   0.7973   0.18027   0.17716  -0.0590  0.0324  1.0000  -2.4007   0.0000   0.0000   0.0000   0.3137
  14.600   0.7986   0.18237   0.17925  -0.0599  0.0323  1.0000  -2.3671   0.0000   0.0000   0.0000   0.3146
  14.700   0.7998   0.18444   0.18132  -0.0608  0.0323  1.0000  -2.3339   0.0000   0.0000   0.0000   0.3156
  14.800   0.8011   0.18648   0.18336  -0.0618  0.0323  1.0000  -2.3011   0.0000   0.0000   0.0000   0.3166
  14.900   0.8025   0.18848   0.18536  -0.0627  0.0322  1.0000  -2.2684   0.0000   0.0000   0.0000   0.3176
  15.000   0.8036   0.19048   0.18735  -0.0638  0.0322  1.0000  -2.2320   0.0000   0.0000   0.0000   0.3188


