xflr5 v6.61

 Calculated polar for: S8025 (8%)

 1 1 Reynolds number fixed          Mach number fixed         

 xtrf =   1.000 (top)        1.000 (bottom)
 Mach =   0.000     Re =     0.275 e 6     Ncrit =   9.000

  alpha     CL        CD       CDp       Cm    Top Xtr Bot Xtr   Cpmin    Chinge    XCp    
 ------- -------- --------- --------- -------- ------- ------- -------- --------- ---------
 -10.000  -0.6882   0.11208   0.10913   0.0320  1.0000  0.0303  -2.1903   0.0000   0.0000   0.0000   0.2910
  -9.900  -0.6868   0.11062   0.10769   0.0316  1.0000  0.0306  -2.1764   0.0000   0.0000   0.0000   0.2906
  -9.800  -0.6856   0.10910   0.10617   0.0310  1.0000  0.0308  -2.1673   0.0000   0.0000   0.0000   0.2900
  -9.700  -0.6847   0.10750   0.10458   0.0304  1.0000  0.0311  -2.1629   0.0000   0.0000   0.0000   0.2892
  -9.600  -0.6840   0.10585   0.10293   0.0297  1.0000  0.0313  -2.1626   0.0000   0.0000   0.0000   0.2883
  -9.500  -0.6835   0.10414   0.10123   0.0289  1.0000  0.0316  -2.1663   0.0000   0.0000   0.0000   0.2872
  -9.400  -0.6832   0.10237   0.09947   0.0281  1.0000  0.0319  -2.1735   0.0000   0.0000   0.0000   0.2861
  -9.300  -0.6833   0.10055   0.09766   0.0271  1.0000  0.0322  -2.1843   0.0000   0.0000   0.0000   0.2848
  -9.200  -0.6835   0.09867   0.09579   0.0261  1.0000  0.0325  -2.1986   0.0000   0.0000   0.0000   0.2833
  -9.100  -0.6840   0.09673   0.09386   0.0250  1.0000  0.0328  -2.2162   0.0000   0.0000   0.0000   0.2817
  -9.000  -0.6847   0.09470   0.09185   0.0238  1.0000  0.0331  -2.2375   0.0000   0.0000   0.0000   0.2800
  -8.900  -0.6857   0.09260   0.08976   0.0225  1.0000  0.0335  -2.2626   0.0000   0.0000   0.0000   0.2780
  -8.800  -0.6870   0.09042   0.08759   0.0210  1.0000  0.0338  -2.2922   0.0000   0.0000   0.0000   0.2759
  -8.700  -0.6886   0.08811   0.08530   0.0194  1.0000  0.0341  -2.3272   0.0000   0.0000   0.0000   0.2735
  -8.600  -0.6907   0.08565   0.08285   0.0174  1.0000  0.0345  -2.3689   0.0000   0.0000   0.0000   0.2706
  -8.500  -0.6933   0.08297   0.08019   0.0151  1.0000  0.0348  -2.4195   0.0000   0.0000   0.0000   0.2672
  -7.300  -0.7326   0.03292   0.02772  -0.0107  1.0000  0.0149  -4.4673   0.0000   0.0000   0.0000   0.2304
  -7.200  -0.7216   0.03306   0.02782  -0.0104  1.0000  0.0146  -4.3589   0.0000   0.0000   0.0000   0.2307
  -7.100  -0.7172   0.03035   0.02501  -0.0102  1.0000  0.0138  -4.4100   0.0000   0.0000   0.0000   0.2308
  -7.000  -0.7109   0.02852   0.02295  -0.0099  1.0000  0.0134  -4.4289   0.0000   0.0000   0.0000   0.2311
  -6.900  -0.7037   0.02695   0.02119  -0.0096  1.0000  0.0131  -4.4326   0.0000   0.0000   0.0000   0.2315
  -6.800  -0.6958   0.02555   0.01959  -0.0093  1.0000  0.0128  -4.4296   0.0000   0.0000   0.0000   0.2319
  -6.700  -0.6875   0.02428   0.01813  -0.0089  1.0000  0.0125  -4.4206   0.0000   0.0000   0.0000   0.2323
  -6.600  -0.6787   0.02312   0.01680  -0.0085  1.0000  0.0123  -4.4052   0.0000   0.0000   0.0000   0.2327
  -6.500  -0.6697   0.02207   0.01560  -0.0081  1.0000  0.0121  -4.3828   0.0000   0.0000   0.0000   0.2332
  -6.400  -0.6604   0.02112   0.01451  -0.0078  1.0000  0.0119  -4.3528   0.0000   0.0000   0.0000   0.2336
  -6.300  -0.6509   0.02025   0.01353  -0.0074  1.0000  0.0118  -4.3154   0.0000   0.0000   0.0000   0.2341
  -6.200  -0.6414   0.01947   0.01265  -0.0070  1.0000  0.0117  -4.2713   0.0000   0.0000   0.0000   0.2346
  -6.100  -0.6318   0.01875   0.01184  -0.0067  1.0000  0.0117  -4.2212   0.0000   0.0000   0.0000   0.2350
  -6.000  -0.6221   0.01809   0.01111  -0.0063  1.0000  0.0117  -4.1655   0.0000   0.0000   0.0000   0.2355
  -5.900  -0.6125   0.01748   0.01045  -0.0060  1.0000  0.0117  -4.1054   0.0000   0.0000   0.0000   0.2359
  -5.800  -0.6028   0.01692   0.00983  -0.0057  1.0000  0.0118  -4.0423   0.0000   0.0000   0.0000   0.2364
  -5.700  -0.5931   0.01639   0.00925  -0.0054  1.0000  0.0120  -3.9770   0.0000   0.0000   0.0000   0.2368
  -5.600  -0.5833   0.01589   0.00871  -0.0051  1.0000  0.0122  -3.9104   0.0000   0.0000   0.0000   0.2372
  -5.500  -0.5735   0.01543   0.00820  -0.0048  1.0000  0.0124  -3.8428   0.0000   0.0000   0.0000   0.2377
  -5.400  -0.5636   0.01499   0.00772  -0.0045  1.0000  0.0128  -3.7748   0.0000   0.0000   0.0000   0.2381
  -5.300  -0.5536   0.01459   0.00727  -0.0042  1.0000  0.0132  -3.7070   0.0000   0.0000   0.0000   0.2385
  -5.200  -0.5435   0.01422   0.00685  -0.0040  1.0000  0.0137  -3.6389   0.0000   0.0000   0.0000   0.2389
  -5.100  -0.5332   0.01390   0.00647  -0.0037  1.0000  0.0143  -3.5667   0.0000   0.0000   0.0000   0.2393
  -5.000  -0.5234   0.01340   0.00588  -0.0034  1.0000  0.0153  -3.5121   0.0000   0.0000   0.0000   0.2398
  -4.900  -0.5134   0.01297   0.00542  -0.0032  1.0000  0.0177  -3.4581   0.0000   0.0000   0.0000   0.2402
  -4.800  -0.5032   0.01252   0.00495  -0.0028  1.0000  0.0232  -3.4334   0.0000   0.0000   0.0000   0.2408
  -4.700  -0.4945   0.01168   0.00444  -0.0025  1.0000  0.0645  -3.4421   0.0000   0.0000   0.0000   0.2414
  -4.600  -0.4842   0.01145   0.00429  -0.0024  1.0000  0.0803  -3.3330   0.0000   0.0000   0.0000   0.2416
  -4.500  -0.4739   0.01124   0.00415  -0.0023  1.0000  0.0938  -3.2128   0.0000   0.0000   0.0000   0.2418
  -4.400  -0.4637   0.01103   0.00405  -0.0022  1.0000  0.1123  -3.0883   0.0000   0.0000   0.0000   0.2419
  -4.300  -0.4535   0.01082   0.00395  -0.0021  1.0000  0.1326  -2.9629   0.0000   0.0000   0.0000   0.2421
  -4.200  -0.4434   0.01061   0.00386  -0.0020  1.0000  0.1524  -2.8388   0.0000   0.0000   0.0000   0.2422
  -4.100  -0.4331   0.01042   0.00375  -0.0019  1.0000  0.1709  -2.7163   0.0000   0.0000   0.0000   0.2424
  -4.000  -0.4228   0.01022   0.00363  -0.0018  1.0000  0.1889  -2.5956   0.0000   0.0000   0.0000   0.2426
  -3.900  -0.4124   0.01004   0.00351  -0.0017  1.0000  0.2061  -2.4765   0.0000   0.0000   0.0000   0.2429
  -3.800  -0.4022   0.00984   0.00339  -0.0015  1.0000  0.2239  -2.3593   0.0000   0.0000   0.0000   0.2432
  -3.700  -0.3919   0.00965   0.00328  -0.0014  1.0000  0.2422  -2.2432   0.0000   0.0000   0.0000   0.2435
  -3.600  -0.3816   0.00947   0.00317  -0.0012  1.0000  0.2610  -2.1286   0.0000   0.0000   0.0000   0.2439
  -3.500  -0.3713   0.00930   0.00307  -0.0011  1.0000  0.2803  -2.0156   0.0000   0.0000   0.0000   0.2442
  -3.400  -0.3609   0.00915   0.00298  -0.0009  1.0000  0.2999  -1.9048   0.0000   0.0000   0.0000   0.2446
  -3.200  -0.3403   0.00883   0.00277  -0.0006  1.0000  0.3417  -1.7085   0.0000   0.0000   0.0000   0.2455
  -3.100  -0.3301   0.00867   0.00270  -0.0004  1.0000  0.3642  -1.6252   0.0000   0.0000   0.0000   0.2460
  -3.000  -0.3200   0.00851   0.00263  -0.0003  1.0000  0.3874  -1.5432   0.0000   0.0000   0.0000   0.2466
  -2.900  -0.3098   0.00835   0.00257  -0.0001  1.0000  0.4107  -1.4625   0.0000   0.0000   0.0000   0.2472
  -2.800  -0.2997   0.00821   0.00251   0.0002  1.0000  0.4340  -1.3831   0.0000   0.0000   0.0000   0.2480
  -2.700  -0.2895   0.00807   0.00245   0.0004  1.0000  0.4570  -1.3049   0.0000   0.0000   0.0000   0.2488
  -2.600  -0.2794   0.00794   0.00241   0.0006  1.0000  0.4805  -1.2282   0.0000   0.0000   0.0000   0.2497
  -2.500  -0.2694   0.00780   0.00237   0.0009  1.0000  0.5055  -1.1530   0.0000   0.0000   0.0000   0.2508
  -2.400  -0.2594   0.00767   0.00233   0.0012  1.0000  0.5315  -1.0792   0.0000   0.0000   0.0000   0.2520
  -2.300  -0.2495   0.00755   0.00231   0.0015  1.0000  0.5571  -1.0069   0.0000   0.0000   0.0000   0.2535
  -2.200  -0.2396   0.00743   0.00228   0.0018  1.0000  0.5821  -0.9361   0.0000   0.0000   0.0000   0.2551
  -2.100  -0.2297   0.00732   0.00226   0.0021  1.0000  0.6062  -0.8667   0.0000   0.0000   0.0000   0.2569
  -2.000  -0.2198   0.00721   0.00224   0.0024  1.0000  0.6288  -0.8145   0.0000   0.0000   0.0000   0.2589
  -1.900  -0.2100   0.00711   0.00222   0.0028  1.0000  0.6496  -0.7867   0.0000   0.0000   0.0000   0.2612
  -1.800  -0.2002   0.00701   0.00220   0.0032  1.0000  0.6692  -0.7608   0.0000   0.0000   0.0000   0.2637
  -1.700  -0.1904   0.00692   0.00215   0.0036  1.0000  0.6888  -0.7351   0.0000   0.0000   0.0000   0.2666
  -1.600  -0.1806   0.00684   0.00214   0.0039  1.0000  0.7084  -0.7096   0.0000   0.0000   0.0000   0.2697
  -1.500  -0.1709   0.00676   0.00213   0.0044  1.0000  0.7285  -0.6844   0.0000   0.0000   0.0000   0.2734
  -1.400  -0.1614   0.00667   0.00213   0.0048  1.0000  0.7486  -0.6596   0.0000   0.0000   0.0000   0.2780
  -1.300  -0.1520   0.00659   0.00213   0.0054  1.0000  0.7692  -0.6351   0.0000   0.0000   0.0000   0.2832
  -1.200  -0.1427   0.00651   0.00214   0.0059  1.0000  0.7900  -0.6109   0.0000   0.0000   0.0000   0.2894
  -1.100  -0.1336   0.00643   0.00214   0.0065  1.0000  0.8109  -0.5870   0.0000   0.0000   0.0000   0.2966
  -1.000  -0.1245   0.00637   0.00216   0.0071  1.0000  0.8324  -0.5637   0.0000   0.0000   0.0000   0.3052
  -0.900  -0.1154   0.00631   0.00217   0.0077  1.0000  0.8545  -0.5429   0.0000   0.0000   0.0000   0.3152
  -0.800  -0.0977   0.00628   0.00220   0.0066  0.9891  0.8778  -0.5129   0.0000   0.0000   0.0000   0.3155
  -0.700  -0.0793   0.00626   0.00222   0.0054  0.9763  0.8995  -0.4825   0.0000   0.0000   0.0000   0.3157
  -0.600  -0.0589   0.00626   0.00224   0.0037  0.9621  0.9193  -0.4502   0.0000   0.0000   0.0000   0.3109
  -0.500  -0.0372   0.00626   0.00224   0.0018  0.9443  0.9358  -0.4172   0.0000   0.0000   0.0000   0.2953
  -0.400  -0.0150   0.00628   0.00223  -0.0002  0.9226  0.9484  -0.3904   0.0000   0.0000   0.0000   0.2305
  -0.300   0.0049   0.00630   0.00220  -0.0018  0.8972  0.9585  -0.3948   0.0000   0.0000   0.0000   0.6155
  -0.200   0.0220   0.00634   0.00216  -0.0027  0.8695  0.9680  -0.4139   0.0000   0.0000   0.0000   0.3711
  -0.100   0.0381   0.00639   0.00212  -0.0034  0.8419  0.9773  -0.4323   0.0000   0.0000   0.0000   0.3380
   0.000   0.0543   0.00646   0.00208  -0.0042  0.8157  0.9867  -0.4508   0.0000   0.0000   0.0000   0.3261
   0.100   0.0715   0.00653   0.00204  -0.0053  0.7901  0.9950  -0.4713   0.0000   0.0000   0.0000   0.3226
   0.200   0.0861   0.00661   0.00200  -0.0059  0.7667  1.0000  -0.4903   0.0000   0.0000   0.0000   0.3172
   0.300   0.0954   0.00669   0.00198  -0.0055  0.7465  1.0000  -0.5052   0.0000   0.0000   0.0000   0.3058
   0.400   0.1049   0.00677   0.00195  -0.0051  0.7278  1.0000  -0.5202   0.0000   0.0000   0.0000   0.2967
   0.500   0.1146   0.00684   0.00194  -0.0047  0.7097  1.0000  -0.5355   0.0000   0.0000   0.0000   0.2896
   0.600   0.1244   0.00691   0.00192  -0.0044  0.6925  1.0000  -0.5509   0.0000   0.0000   0.0000   0.2837
   0.700   0.1341   0.00699   0.00191  -0.0041  0.6758  1.0000  -0.5664   0.0000   0.0000   0.0000   0.2786
   0.800   0.1440   0.00706   0.00191  -0.0038  0.6585  1.0000  -0.5820   0.0000   0.0000   0.0000   0.2743
   0.900   0.1540   0.00714   0.00190  -0.0035  0.6419  1.0000  -0.5978   0.0000   0.0000   0.0000   0.2708
   1.000   0.1638   0.00722   0.00190  -0.0032  0.6256  1.0000  -0.6142   0.0000   0.0000   0.0000   0.2675
   1.100   0.1739   0.00730   0.00190  -0.0029  0.6089  1.0000  -0.6319   0.0000   0.0000   0.0000   0.2648
   1.200   0.1839   0.00737   0.00190  -0.0027  0.5933  1.0000  -0.6496   0.0000   0.0000   0.0000   0.2624
   1.300   0.1939   0.00747   0.00192  -0.0024  0.5775  1.0000  -0.6675   0.0000   0.0000   0.0000   0.2602
   1.400   0.2041   0.00753   0.00193  -0.0022  0.5620  1.0000  -0.6875   0.0000   0.0000   0.0000   0.2585
   1.500   0.2142   0.00763   0.00193  -0.0019  0.5474  1.0000  -0.7097   0.0000   0.0000   0.0000   0.2568
   1.600   0.2245   0.00770   0.00195  -0.0017  0.5327  1.0000  -0.7323   0.0000   0.0000   0.0000   0.2554
   1.700   0.2347   0.00779   0.00196  -0.0015  0.5192  1.0000  -0.7550   0.0000   0.0000   0.0000   0.2541
   1.800   0.2450   0.00786   0.00198  -0.0013  0.5054  1.0000  -0.7779   0.0000   0.0000   0.0000   0.2530
   1.900   0.2553   0.00795   0.00201  -0.0011  0.4929  1.0000  -0.8009   0.0000   0.0000   0.0000   0.2520
   2.000   0.2657   0.00803   0.00203  -0.0009  0.4796  1.0000  -0.8268   0.0000   0.0000   0.0000   0.2511
   2.100   0.2760   0.00812   0.00206  -0.0007  0.4673  1.0000  -0.8529   0.0000   0.0000   0.0000   0.2502
   2.200   0.2865   0.00820   0.00209  -0.0006  0.4544  1.0000  -0.8794   0.0000   0.0000   0.0000   0.2495
   2.300   0.2968   0.00830   0.00212  -0.0004  0.4425  1.0000  -0.9058   0.0000   0.0000   0.0000   0.2488
   2.400   0.3073   0.00837   0.00216  -0.0002  0.4304  1.0000  -0.9327   0.0000   0.0000   0.0000   0.2482
   2.600   0.3283   0.00855   0.00225   0.0001  0.4083  1.0000  -0.9868   0.0000   0.0000   0.0000   0.2471
   2.700   0.3386   0.00866   0.00229   0.0002  0.3972  1.0000  -1.0140   0.0000   0.0000   0.0000   0.2466
   2.800   0.3492   0.00874   0.00234   0.0004  0.3867  1.0000  -1.0415   0.0000   0.0000   0.0000   0.2461
   2.900   0.3597   0.00883   0.00239   0.0005  0.3756  1.0000  -1.0692   0.0000   0.0000   0.0000   0.2457
   3.000   0.3702   0.00895   0.00250   0.0007  0.3652  1.0000  -1.0969   0.0000   0.0000   0.0000   0.2453
   3.100   0.3808   0.00902   0.00256   0.0008  0.3544  1.0000  -1.1265   0.0000   0.0000   0.0000   0.2450
   3.200   0.3911   0.00916   0.00262   0.0010  0.3440  1.0000  -1.1582   0.0000   0.0000   0.0000   0.2446
   3.300   0.4019   0.00922   0.00268   0.0011  0.3341  1.0000  -1.1906   0.0000   0.0000   0.0000   0.2443
   3.400   0.4123   0.00934   0.00274   0.0012  0.3237  1.0000  -1.2292   0.0000   0.0000   0.0000   0.2440
   3.500   0.4229   0.00944   0.00281   0.0013  0.3142  1.0000  -1.2727   0.0000   0.0000   0.0000   0.2437
   3.600   0.4335   0.00953   0.00288   0.0014  0.3043  1.0000  -1.3167   0.0000   0.0000   0.0000   0.2435
   3.700   0.4439   0.00967   0.00296   0.0016  0.2950  1.0000  -1.3605   0.0000   0.0000   0.0000   0.2432
   3.800   0.4547   0.00974   0.00304   0.0017  0.2861  1.0000  -1.4056   0.0000   0.0000   0.0000   0.2430
   3.900   0.4651   0.00986   0.00311   0.0018  0.2769  1.0000  -1.4505   0.0000   0.0000   0.0000   0.2428
   4.000   0.4757   0.00998   0.00320   0.0019  0.2685  1.0000  -1.4958   0.0000   0.0000   0.0000   0.2425
   4.100   0.4864   0.01008   0.00329   0.0020  0.2597  1.0000  -1.5467   0.0000   0.0000   0.0000   0.2423
   4.200   0.4967   0.01024   0.00338   0.0022  0.2509  1.0000  -1.6004   0.0000   0.0000   0.0000   0.2421
   4.300   0.5075   0.01032   0.00348   0.0023  0.2430  1.0000  -1.6555   0.0000   0.0000   0.0000   0.2419
   4.400   0.5181   0.01044   0.00357   0.0024  0.2348  1.0000  -1.7107   0.0000   0.0000   0.0000   0.2417
   4.500   0.5285   0.01060   0.00372   0.0025  0.2272  1.0000  -1.7662   0.0000   0.0000   0.0000   0.2415
   4.600   0.5392   0.01068   0.00383   0.0026  0.2197  1.0000  -1.8230   0.0000   0.0000   0.0000   0.2414
   4.700   0.5497   0.01083   0.00394   0.0027  0.2120  1.0000  -1.8793   0.0000   0.0000   0.0000   0.2412
   4.800   0.5602   0.01098   0.00406   0.0028  0.2046  1.0000  -1.9358   0.0000   0.0000   0.0000   0.2410
   4.900   0.5709   0.01108   0.00418   0.0029  0.1970  1.0000  -1.9934   0.0000   0.0000   0.0000   0.2408
   5.000   0.5811   0.01128   0.00430   0.0030  0.1892  1.0000  -2.0504   0.0000   0.0000   0.0000   0.2407
   5.100   0.5918   0.01138   0.00443   0.0031  0.1821  1.0000  -2.1088   0.0000   0.0000   0.0000   0.2405
   5.200   0.6023   0.01152   0.00455   0.0032  0.1746  1.0000  -2.1676   0.0000   0.0000   0.0000   0.2404
   5.300   0.6126   0.01172   0.00471   0.0034  0.1674  1.0000  -2.2254   0.0000   0.0000   0.0000   0.2402
   5.400   0.6233   0.01182   0.00483   0.0034  0.1603  1.0000  -2.2854   0.0000   0.0000   0.0000   0.2400
   5.500   0.6336   0.01201   0.00497   0.0035  0.1530  1.0000  -2.3448   0.0000   0.0000   0.0000   0.2399
   5.600   0.6441   0.01215   0.00513   0.0037  0.1464  1.0000  -2.4043   0.0000   0.0000   0.0000   0.2397
   5.700   0.6547   0.01229   0.00526   0.0038  0.1395  1.0000  -2.4650   0.0000   0.0000   0.0000   0.2396
   5.800   0.6648   0.01254   0.00545   0.0039  0.1327  1.0000  -2.5324   0.0000   0.0000   0.0000   0.2394
   5.900   0.6755   0.01265   0.00560   0.0040  0.1267  1.0000  -2.6458   0.0000   0.0000   0.0000   0.2393
   6.000   0.6857   0.01285   0.00576   0.0041  0.1206  1.0000  -2.7584   0.0000   0.0000   0.0000   0.2391
   6.100   0.6959   0.01308   0.00603   0.0042  0.1147  1.0000  -2.8752   0.0000   0.0000   0.0000   0.2389
   6.200   0.7065   0.01323   0.00620   0.0043  0.1090  1.0000  -2.9956   0.0000   0.0000   0.0000   0.2388
   6.300   0.7163   0.01352   0.00643   0.0044  0.1030  1.0000  -3.1109   0.0000   0.0000   0.0000   0.2386
   6.400   0.7268   0.01368   0.00663   0.0046  0.0979  1.0000  -3.2306   0.0000   0.0000   0.0000   0.2385
   6.500   0.7372   0.01385   0.00681   0.0047  0.0927  1.0000  -3.3524   0.0000   0.0000   0.0000   0.2383
   6.600   0.7468   0.01422   0.00711   0.0048  0.0874  1.0000  -3.4671   0.0000   0.0000   0.0000   0.2381
   6.700   0.7575   0.01436   0.00732   0.0049  0.0832  1.0000  -3.5905   0.0000   0.0000   0.0000   0.2379
   6.800   0.7677   0.01458   0.00753   0.0050  0.0787  1.0000  -3.7137   0.0000   0.0000   0.0000   0.2378
   6.900   0.7770   0.01502   0.00793   0.0052  0.0741  1.0000  -3.8269   0.0000   0.0000   0.0000   0.2375
   7.000   0.7875   0.01520   0.00817   0.0054  0.0705  1.0000  -3.9509   0.0000   0.0000   0.0000   0.2373
   7.100   0.7976   0.01545   0.00843   0.0055  0.0668  1.0000  -4.0752   0.0000   0.0000   0.0000   0.2371
   7.200   0.8064   0.01599   0.00891   0.0057  0.0630  1.0000  -4.1868   0.0000   0.0000   0.0000   0.2369
   7.300   0.8165   0.01629   0.00928   0.0059  0.0604  1.0000  -4.3062   0.0000   0.0000   0.0000   0.2366
   7.400   0.8265   0.01657   0.00960   0.0061  0.0578  1.0000  -4.4292   0.0000   0.0000   0.0000   0.2364
   7.500   0.8364   0.01686   0.00991   0.0062  0.0554  1.0000  -4.5556   0.0000   0.0000   0.0000   0.2362
   7.600   0.8456   0.01730   0.01033   0.0064  0.0530  1.0000  -4.6768   0.0000   0.0000   0.0000   0.2360
   7.700   0.8542   0.01794   0.01097   0.0067  0.0508  1.0000  -4.7850   0.0000   0.0000   0.0000   0.2356
   7.800   0.8645   0.01815   0.01130   0.0069  0.0492  1.0000  -4.9107   0.0000   0.0000   0.0000   0.2354
   7.900   0.8744   0.01844   0.01164   0.0070  0.0474  1.0000  -5.0375   0.0000   0.0000   0.0000   0.2352
   8.000   0.8841   0.01878   0.01201   0.0072  0.0459  1.0000  -5.1640   0.0000   0.0000   0.0000   0.2350
   8.100   0.8936   0.01914   0.01239   0.0074  0.0445  1.0000  -5.2920   0.0000   0.0000   0.0000   0.2348
   8.200   0.9027   0.01960   0.01286   0.0076  0.0433  1.0000  -5.4165   0.0000   0.0000   0.0000   0.2345
   8.300   0.9106   0.02045   0.01371   0.0079  0.0419  1.0000  -5.5196   0.0000   0.0000   0.0000   0.2342
   8.400   0.9190   0.02123   0.01455   0.0082  0.0410  1.0000  -5.6228   0.0000   0.0000   0.0000   0.2338
   8.500   0.9287   0.02159   0.01500   0.0084  0.0403  1.0000  -5.7471   0.0000   0.0000   0.0000   0.2336
   8.600   0.9383   0.02197   0.01547   0.0086  0.0393  1.0000  -5.8712   0.0000   0.0000   0.0000   0.2333
   8.700   0.9478   0.02233   0.01590   0.0088  0.0382  1.0000  -5.9990   0.0000   0.0000   0.0000   0.2331
   8.800   0.9573   0.02258   0.01621   0.0089  0.0368  1.0000  -6.1369   0.0000   0.0000   0.0000   0.2329
   8.900   0.9669   0.02272   0.01636   0.0090  0.0352  1.0000  -6.2894   0.0000   0.0000   0.0000   0.2328
   9.000   0.9757   0.02306   0.01667   0.0090  0.0337  1.0000  -6.4365   0.0000   0.0000   0.0000   0.2327
   9.100   0.9822   0.02418   0.01785   0.0093  0.0321  1.0000  -6.5262   0.0000   0.0000   0.0000   0.2324
   9.200   0.9926   0.02410   0.01787   0.0094  0.0309  1.0000  -6.6833   0.0000   0.0000   0.0000   0.2323
   9.300   1.0024   0.02419   0.01804   0.0094  0.0293  1.0000  -6.8338   0.0000   0.0000   0.0000   0.2322
   9.400   1.0118   0.02437   0.01826   0.0095  0.0279  1.0000  -6.9810   0.0000   0.0000   0.0000   0.2321
   9.500   1.0208   0.02465   0.01858   0.0096  0.0267  1.0000  -7.1248   0.0000   0.0000   0.0000   0.2320
   9.600   1.0278   0.02538   0.01931   0.0098  0.0253  1.0000  -7.2365   0.0000   0.0000   0.0000   0.2317
   9.700   1.0340   0.02643   0.02048   0.0101  0.0240  1.0000  -7.2983   0.0000   0.0000   0.0000   0.2314
   9.800   1.0431   0.02668   0.02088   0.0103  0.0224  1.0000  -7.4016   0.0000   0.0000   0.0000   0.2312
   9.900   1.0519   0.02695   0.02120   0.0104  0.0205  1.0000  -7.5061   0.0000   0.0000   0.0000   0.2310
  10.000   1.0595   0.02735   0.02158   0.0104  0.0190  1.0000  -7.6160   0.0000   0.0000   0.0000   0.2309
  10.100   1.0613   0.02921   0.02358   0.0109  0.0173  1.0000  -7.5600   0.0000   0.0000   0.0000   0.2304
  10.200   1.0685   0.02988   0.02441   0.0111  0.0162  1.0000  -7.5908   0.0000   0.0000   0.0000   0.2301
  10.300   1.0744   0.03075   0.02540   0.0114  0.0153  1.0000  -7.6246   0.0000   0.0000   0.0000   0.2298
  10.400   1.0800   0.03161   0.02636   0.0117  0.0146  1.0000  -7.6748   0.0000   0.0000   0.0000   0.2295
  10.500   1.0853   0.03246   0.02729   0.0119  0.0141  1.0000  -7.7357   0.0000   0.0000   0.0000   0.2292
  10.600   1.0903   0.03334   0.02825   0.0121  0.0137  1.0000  -7.8006   0.0000   0.0000   0.0000   0.2289
  10.700   1.0945   0.03429   0.02928   0.0123  0.0134  1.0000  -7.8614   0.0000   0.0000   0.0000   0.2287
  10.800   1.0976   0.03539   0.03046   0.0125  0.0131  1.0000  -7.9099   0.0000   0.0000   0.0000   0.2284
  10.900   1.0994   0.03668   0.03184   0.0126  0.0129  1.0000  -7.9402   0.0000   0.0000   0.0000   0.2281
  11.000   1.0995   0.03817   0.03344   0.0128  0.0127  1.0000  -7.9505   0.0000   0.0000   0.0000   0.2279
  11.100   1.0977   0.03985   0.03525   0.0129  0.0125  1.0000  -7.9394   0.0000   0.0000   0.0000   0.2276
  11.200   1.0943   0.04165   0.03720   0.0129  0.0124  1.0000  -7.9126   0.0000   0.0000   0.0000   0.2275
  11.300   1.0891   0.04339   0.03906   0.0130  0.0123  1.0000  -7.8795   0.0000   0.0000   0.0000   0.2272
  11.400   1.0832   0.04510   0.04089   0.0129  0.0123  1.0000  -7.8456   0.0000   0.0000   0.0000   0.2272
  11.500   1.0771   0.04694   0.04283   0.0121  0.0123  1.0000  -7.8111   0.0000   0.0000   0.0000   0.2277
  11.600   1.0713   0.04895   0.04494   0.0108  0.0122  1.0000  -7.7756   0.0000   0.0000   0.0000   0.2287
  11.700   1.0657   0.05116   0.04725   0.0090  0.0122  1.0000  -7.7386   0.0000   0.0000   0.0000   0.2302
  11.800   1.0604   0.05354   0.04972   0.0069  0.0122  1.0000  -7.7000   0.0000   0.0000   0.0000   0.2319
  11.900   1.0552   0.05606   0.05232   0.0046  0.0122  1.0000  -7.6600   0.0000   0.0000   0.0000   0.2339
  12.000   1.0501   0.05871   0.05505   0.0022  0.0123  1.0000  -7.6182   0.0000   0.0000   0.0000   0.2360
  12.100   1.0450   0.06145   0.05787  -0.0002  0.0123  1.0000  -7.5746   0.0000   0.0000   0.0000   0.2382
  12.200   1.0398   0.06424   0.06073  -0.0026  0.0123  1.0000  -7.5292   0.0000   0.0000   0.0000   0.2404
  12.300   1.0346   0.06710   0.06366  -0.0050  0.0123  1.0000  -7.4811   0.0000   0.0000   0.0000   0.2426
  12.400   1.0292   0.07005   0.06667  -0.0074  0.0124  1.0000  -7.4290   0.0000   0.0000   0.0000   0.2448
  12.500   1.0235   0.07310   0.06978  -0.0098  0.0124  1.0000  -7.3713   0.0000   0.0000   0.0000   0.2471
  12.600   1.0174   0.07628   0.07303  -0.0123  0.0125  1.0000  -7.3049   0.0000   0.0000   0.0000   0.2494
  12.700   1.0104   0.07968   0.07650  -0.0148  0.0126  1.0000  -7.2228   0.0000   0.0000   0.0000   0.2519
  12.800   1.0011   0.08362   0.08052  -0.0177  0.0128  1.0000  -7.1024   0.0000   0.0000   0.0000   0.2549
  12.900   0.9778   0.09111   0.08816  -0.0230  0.0133  1.0000  -6.7469   0.0000   0.0000   0.0000   0.2608
  13.000   0.9081   0.11044   0.10770  -0.0348  0.0155  1.0000  -5.6485   0.0000   0.0000   0.0000   0.2764
  13.100   0.8824   0.11873   0.11596  -0.0391  0.0165  1.0000  -5.2362   0.0000   0.0000   0.0000   0.2826
  13.200   0.8654   0.12489   0.12211  -0.0420  0.0171  1.0000  -4.9397   0.0000   0.0000   0.0000   0.2870
  13.300   0.8513   0.13055   0.12774  -0.0445  0.0174  1.0000  -4.6613   0.0000   0.0000   0.0000   0.2910
  13.400   0.8393   0.13585   0.13302  -0.0468  0.0176  1.0000  -4.3931   0.0000   0.0000   0.0000   0.2945
  13.500   0.8296   0.14075   0.13790  -0.0487  0.0177  1.0000  -4.1427   0.0000   0.0000   0.0000   0.2977
  13.700   0.7948   0.15935   0.15641  -0.0558  0.0204  1.0000  -2.9173   0.0000   0.0000   0.0000   0.3102
  13.800   0.7915   0.16289   0.15993  -0.0571  0.0212  1.0000  -2.7571   0.0000   0.0000   0.0000   0.3122
  13.900   0.7903   0.16562   0.16265  -0.0581  0.0220  1.0000  -2.6598   0.0000   0.0000   0.0000   0.3136
  14.000   0.7905   0.16781   0.16484  -0.0588  0.0227  1.0000  -2.6047   0.0000   0.0000   0.0000   0.3144
  14.100   0.7921   0.16945   0.16648  -0.0591  0.0234  1.0000  -2.5945   0.0000   0.0000   0.0000   0.3145
  14.200   0.7919   0.17440   0.17144  -0.0579  0.0322  1.0000  -2.4056   0.0000   0.0000   0.0000   0.3131
  14.300   0.7927   0.17653   0.17356  -0.0590  0.0321  1.0000  -2.3629   0.0000   0.0000   0.0000   0.3143
  14.400   0.7926   0.17881   0.17584  -0.0604  0.0320  1.0000  -2.3010   0.0000   0.0000   0.0000   0.3161
  14.500   0.7902   0.18146   0.17846  -0.0630  0.0314  1.0000  -2.1826   0.0000   0.0000   0.0000   0.3196
  14.600   0.7887   0.18401   0.18100  -0.0651  0.0305  1.0000  -2.0846   0.0000   0.0000   0.0000   0.3225
  14.700   0.7897   0.18602   0.18300  -0.0662  0.0299  1.0000  -2.0470   0.0000   0.0000   0.0000   0.3237
  14.800   0.7912   0.18790   0.18488  -0.0671  0.0294  1.0000  -2.0214   0.0000   0.0000   0.0000   0.3247
  14.900   0.7929   0.18971   0.18669  -0.0680  0.0289  1.0000  -2.0018   0.0000   0.0000   0.0000   0.3255
  15.000   0.7947   0.19147   0.18845  -0.0688  0.0285  1.0000  -1.9864   0.0000   0.0000   0.0000   0.3262


