xflr5 v6.61

 Calculated polar for: S8025 (8%)

 1 1 Reynolds number fixed          Mach number fixed         

 xtrf =   1.000 (top)        1.000 (bottom)
 Mach =   0.000     Re =     0.050 e 6     Ncrit =   9.000

  alpha     CL        CD       CDp       Cm    Top Xtr Bot Xtr   Cpmin    Chinge    XCp    
 ------- -------- --------- --------- -------- ------- ------- -------- --------- ---------
 -10.000  -0.6762   0.13493   0.12825   0.0407  1.0000  0.2058  -1.7258   0.0000   0.0000   0.0000   0.3057
  -9.900  -0.6896   0.13546   0.12886   0.0383  1.0000  0.2066  -1.7734   0.0000   0.0000   0.0000   0.3012
  -9.800  -0.6740   0.13063   0.12401   0.0397  1.0000  0.2084  -1.7479   0.0000   0.0000   0.0000   0.3047
  -9.700  -0.6568   0.12700   0.12033   0.0416  1.0000  0.2114  -1.7138   0.0000   0.0000   0.0000   0.3090
  -9.600  -0.6499   0.12499   0.11832   0.0420  1.0000  0.2144  -1.7066   0.0000   0.0000   0.0000   0.3103
  -9.500  -0.6468   0.12341   0.11675   0.0419  1.0000  0.2176  -1.7097   0.0000   0.0000   0.0000   0.3106
  -9.400  -0.6473   0.12219   0.11554   0.0414  1.0000  0.2213  -1.7220   0.0000   0.0000   0.0000   0.3097
  -9.300  -0.6572   0.12211   0.11552   0.0396  1.0000  0.2256  -1.7566   0.0000   0.0000   0.0000   0.3062
  -9.200  -0.6760   0.12316   0.11666   0.0366  1.0000  0.2274  -1.8123   0.0000   0.0000   0.0000   0.3003
  -9.100  -0.6849   0.12238   0.11596   0.0348  1.0000  0.2283  -1.8469   0.0000   0.0000   0.0000   0.2970
  -9.000  -0.6562   0.11660   0.11009   0.0381  1.0000  0.2311  -1.7943   0.0000   0.0000   0.0000   0.3042
  -8.900  -0.6462   0.11419   0.10767   0.0390  1.0000  0.2338  -1.7818   0.0000   0.0000   0.0000   0.3064
  -8.800  -0.6410   0.11239   0.10586   0.0392  1.0000  0.2367  -1.7804   0.0000   0.0000   0.0000   0.3073
  -8.700  -0.6390   0.11086   0.10435   0.0390  1.0000  0.2399  -1.7867   0.0000   0.0000   0.0000   0.3072
  -8.600  -0.6409   0.10969   0.10320   0.0383  1.0000  0.2438  -1.8023   0.0000   0.0000   0.0000   0.3059
  -8.500  -0.6707   0.11181   0.10546   0.0340  1.0000  0.2494  -1.8767   0.0000   0.0000   0.0000   0.2972
  -8.400  -0.6740   0.10994   0.10365   0.0330  1.0000  0.2506  -1.8986   0.0000   0.0000   0.0000   0.2954
  -8.300  -0.6566   0.10599   0.09966   0.0348  1.0000  0.2522  -1.8754   0.0000   0.0000   0.0000   0.2994
  -8.200  -0.6472   0.10346   0.09711   0.0355  1.0000  0.2539  -1.8665   0.0000   0.0000   0.0000   0.3013
  -8.100  -0.6413   0.10144   0.09502   0.0357  1.0000  0.2556  -1.8616   0.0000   0.0000   0.0000   0.3021
  -8.000  -0.6342   0.09969   0.09327   0.0363  1.0000  0.2605  -1.8553   0.0000   0.0000   0.0000   0.3038
  -7.900  -0.6352   0.09845   0.09206   0.0358  1.0000  0.2655  -1.8679   0.0000   0.0000   0.0000   0.3030
  -7.700  -0.6759   0.08057   0.07428   0.0073  1.0000  0.1230  -2.4614   0.0000   0.0000   0.0000   0.2572
  -7.600  -0.6863   0.07492   0.06849   0.0001  1.0000  0.1114  -2.6469   0.0000   0.0000   0.0000   0.2464
  -7.500  -0.6832   0.07258   0.06615  -0.0004  1.0000  0.1088  -2.6663   0.0000   0.0000   0.0000   0.2457
  -7.400  -0.6999   0.06623   0.05926  -0.0080  1.0000  0.0984  -2.9482   0.0000   0.0000   0.0000   0.2346
  -7.300  -0.6933   0.06411   0.05719  -0.0078  1.0000  0.0975  -2.9390   0.0000   0.0000   0.0000   0.2349
  -7.200  -0.6888   0.06193   0.05499  -0.0080  1.0000  0.0964  -2.9499   0.0000   0.0000   0.0000   0.2345
  -7.100  -0.6851   0.05964   0.05263  -0.0086  1.0000  0.0953  -2.9730   0.0000   0.0000   0.0000   0.2337
  -7.000  -0.6816   0.05725   0.05013  -0.0092  1.0000  0.0941  -3.0050   0.0000   0.0000   0.0000   0.2327
  -6.900  -0.6781   0.05479   0.04751  -0.0099  1.0000  0.0929  -3.0441   0.0000   0.0000   0.0000   0.2315
  -6.800  -0.6744   0.05228   0.04480  -0.0106  1.0000  0.0917  -3.0885   0.0000   0.0000   0.0000   0.2304
  -6.700  -0.6699   0.04983   0.04213  -0.0112  1.0000  0.0907  -3.1329   0.0000   0.0000   0.0000   0.2295
  -6.600  -0.6646   0.04752   0.03958  -0.0115  1.0000  0.0901  -3.1723   0.0000   0.0000   0.0000   0.2288
  -6.500  -0.6585   0.04538   0.03719  -0.0117  1.0000  0.0900  -3.2051   0.0000   0.0000   0.0000   0.2284
  -6.400  -0.6517   0.04341   0.03499  -0.0118  1.0000  0.0903  -3.2298   0.0000   0.0000   0.0000   0.2281
  -6.300  -0.6442   0.04158   0.03293  -0.0118  1.0000  0.0911  -3.2491   0.0000   0.0000   0.0000   0.2279
  -6.200  -0.6363   0.03983   0.03095  -0.0117  1.0000  0.0924  -3.2662   0.0000   0.0000   0.0000   0.2279
  -6.100  -0.6281   0.03830   0.02912  -0.0115  1.0000  0.0953  -3.2798   0.0000   0.0000   0.0000   0.2279
  -6.000  -0.6197   0.03693   0.02726  -0.0113  1.0000  0.0990  -3.3108   0.0000   0.0000   0.0000   0.2280
  -5.900  -0.6116   0.03615   0.02687  -0.0111  1.0000  0.1069  -3.2203   0.0000   0.0000   0.0000   0.2282
  -5.800  -0.6025   0.03487   0.02522  -0.0108  1.0000  0.1127  -3.2357   0.0000   0.0000   0.0000   0.2284
  -5.700  -0.5936   0.03326   0.02354  -0.0106  1.0000  0.1176  -3.2348   0.0000   0.0000   0.0000   0.2286
  -5.600  -0.5838   0.03210   0.02237  -0.0101  1.0000  0.1244  -3.2222   0.0000   0.0000   0.0000   0.2291
  -5.500  -0.5746   0.03083   0.02092  -0.0098  1.0000  0.1343  -3.2214   0.0000   0.0000   0.0000   0.2294
  -5.400  -0.5653   0.03016   0.02009  -0.0093  1.0000  0.1489  -3.1988   0.0000   0.0000   0.0000   0.2300
  -5.300  -0.5562   0.02908   0.01913  -0.0089  1.0000  0.1614  -3.1481   0.0000   0.0000   0.0000   0.2306
  -5.200  -0.5473   0.02820   0.01829  -0.0084  1.0000  0.1776  -3.1068   0.0000   0.0000   0.0000   0.2313
  -5.100  -0.5382   0.02735   0.01746  -0.0080  1.0000  0.1943  -3.0587   0.0000   0.0000   0.0000   0.2319
  -5.000  -0.5288   0.02655   0.01663  -0.0075  1.0000  0.2115  -3.0034   0.0000   0.0000   0.0000   0.2326
  -4.900  -0.5192   0.02588   0.01587  -0.0070  1.0000  0.2291  -2.9418   0.0000   0.0000   0.0000   0.2332
  -4.800  -0.5098   0.02521   0.01531  -0.0065  1.0000  0.2458  -2.8629   0.0000   0.0000   0.0000   0.2341
  -4.700  -0.5006   0.02452   0.01474  -0.0060  1.0000  0.2628  -2.7818   0.0000   0.0000   0.0000   0.2349
  -4.600  -0.4907   0.02378   0.01401  -0.0056  1.0000  0.2797  -2.7052   0.0000   0.0000   0.0000   0.2356
  -4.500  -0.4809   0.02316   0.01338  -0.0051  1.0000  0.2992  -2.6246   0.0000   0.0000   0.0000   0.2364
  -4.400  -0.4713   0.02262   0.01283  -0.0047  1.0000  0.3202  -2.5427   0.0000   0.0000   0.0000   0.2372
  -4.300  -0.4618   0.02201   0.01236  -0.0041  1.0000  0.3406  -2.4743   0.0000   0.0000   0.0000   0.2383
  -4.200  -0.4525   0.02145   0.01192  -0.0034  1.0000  0.3634  -2.4054   0.0000   0.0000   0.0000   0.2395
  -4.100  -0.4433   0.02093   0.01151  -0.0028  1.0000  0.3884  -2.3359   0.0000   0.0000   0.0000   0.2409
  -4.000  -0.4342   0.02044   0.01112  -0.0021  1.0000  0.4159  -2.2658   0.0000   0.0000   0.0000   0.2423
  -3.900  -0.4251   0.01998   0.01075  -0.0014  1.0000  0.4460  -2.1957   0.0000   0.0000   0.0000   0.2439
  -3.800  -0.4168   0.01954   0.01050  -0.0004  1.0000  0.4749  -2.1248   0.0000   0.0000   0.0000   0.2463
  -3.700  -0.4088   0.01917   0.01031   0.0007  1.0000  0.5054  -2.0537   0.0000   0.0000   0.0000   0.2491
  -3.600  -0.4009   0.01882   0.01012   0.0019  1.0000  0.5377  -1.9832   0.0000   0.0000   0.0000   0.2522
  -3.500  -0.3930   0.01849   0.00991   0.0032  1.0000  0.5720  -1.9135   0.0000   0.0000   0.0000   0.2555
  -3.400  -0.3856   0.01819   0.00974   0.0046  1.0000  0.6060  -1.8436   0.0000   0.0000   0.0000   0.2593
  -3.300  -0.3787   0.01792   0.00955   0.0063  1.0000  0.6384  -1.7708   0.0000   0.0000   0.0000   0.2641
  -3.200  -0.3720   0.01769   0.00943   0.0081  1.0000  0.6719  -1.7046   0.0000   0.0000   0.0000   0.2692
  -3.100  -0.3656   0.01746   0.00929   0.0099  1.0000  0.7060  -1.6403   0.0000   0.0000   0.0000   0.2746
  -3.000  -0.3593   0.01728   0.00922   0.0121  1.0000  0.7367  -1.5747   0.0000   0.0000   0.0000   0.2811
  -2.900  -0.3529   0.01712   0.00913   0.0142  1.0000  0.7692  -1.5099   0.0000   0.0000   0.0000   0.2878
  -2.800  -0.3457   0.01698   0.00903   0.0162  1.0000  0.8015  -1.4423   0.0000   0.0000   0.0000   0.2945
  -2.700  -0.3361   0.01687   0.00894   0.0179  1.0000  0.8349  -1.3662   0.0000   0.0000   0.0000   0.3010
  -2.600  -0.3202   0.01682   0.00885   0.0186  1.0000  0.8703  -1.2676   0.0000   0.0000   0.0000   0.3057
  -2.500  -0.2929   0.01682   0.00870   0.0170  1.0000  0.9093  -1.1314   0.0000   0.0000   0.0000   0.3057
  -2.400  -0.2384   0.01683   0.00838   0.0101  1.0000  0.9496  -0.9086   0.0000   0.0000   0.0000   0.2896
  -2.300  -0.1717   0.01653   0.00771  -0.0005  1.0000  0.9875  -0.7400   0.0000   0.0000   0.0000   0.2441
  -2.200  -0.1442   0.01612   0.00707  -0.0048  1.0000  1.0000  -0.6958   0.0000   0.0000   0.0000   0.2137
  -2.100  -0.1383   0.01584   0.00674  -0.0049  1.0000  1.0000  -0.6796   0.0000   0.0000   0.0000   0.2109
  -2.000  -0.1321   0.01559   0.00645  -0.0050  1.0000  1.0000  -0.6626   0.0000   0.0000   0.0000   0.2087
  -1.900  -0.1257   0.01537   0.00619  -0.0050  1.0000  1.0000  -0.6449   0.0000   0.0000   0.0000   0.2067
  -1.800  -0.1191   0.01518   0.00596  -0.0050  1.0000  1.0000  -0.6267   0.0000   0.0000   0.0000   0.2051
  -1.700  -0.1123   0.01502   0.00575  -0.0048  1.0000  1.0000  -0.6081   0.0000   0.0000   0.0000   0.2038
  -1.600  -0.1053   0.01488   0.00557  -0.0046  1.0000  1.0000  -0.5891   0.0000   0.0000   0.0000   0.2027
  -1.500  -0.0983   0.01477   0.00541  -0.0044  1.0000  1.0000  -0.5713   0.0000   0.0000   0.0000   0.2019
  -1.400  -0.0910   0.01467   0.00527  -0.0042  1.0000  1.0000  -0.5541   0.0000   0.0000   0.0000   0.2011
  -1.300  -0.0834   0.01458   0.00515  -0.0039  1.0000  1.0000  -0.5366   0.0000   0.0000   0.0000   0.2001
  -1.200  -0.0757   0.01451   0.00504  -0.0036  1.0000  1.0000  -0.5189   0.0000   0.0000   0.0000   0.1988
  -1.100  -0.0678   0.01445   0.00494  -0.0034  1.0000  1.0000  -0.5009   0.0000   0.0000   0.0000   0.1971
  -1.000  -0.0598   0.01440   0.00485  -0.0031  1.0000  1.0000  -0.4829   0.0000   0.0000   0.0000   0.1950
  -0.900  -0.0517   0.01435   0.00478  -0.0028  1.0000  1.0000  -0.4648   0.0000   0.0000   0.0000   0.1924
  -0.800  -0.0435   0.01432   0.00472  -0.0025  1.0000  1.0000  -0.4466   0.0000   0.0000   0.0000   0.1887
  -0.700  -0.0353   0.01429   0.00467  -0.0022  1.0000  1.0000  -0.4284   0.0000   0.0000   0.0000   0.1830
  -0.600  -0.0269   0.01427   0.00463  -0.0020  1.0000  1.0000  -0.4134   0.0000   0.0000   0.0000   0.1737
  -0.500  -0.0185   0.01426   0.00460  -0.0017  1.0000  1.0000  -0.3989   0.0000   0.0000   0.0000   0.1556
  -0.400  -0.0101   0.01425   0.00457  -0.0014  1.0000  1.0000  -0.3844   0.0000   0.0000   0.0000   0.1066
  -0.300  -0.0016   0.01424   0.00453  -0.0011  1.0000  1.0000  -0.3864   0.0000   0.0000   0.0000  -0.4606
  -0.200   0.0068   0.01424   0.00453  -0.0008  1.0000  1.0000  -0.3982   0.0000   0.0000   0.0000   0.3729
  -0.100   0.0152   0.01425   0.00453  -0.0006  1.0000  1.0000  -0.4101   0.0000   0.0000   0.0000   0.2855
   0.000   0.0236   0.01426   0.00455  -0.0003  1.0000  1.0000  -0.4219   0.0000   0.0000   0.0000   0.2603
   0.100   0.0318   0.01428   0.00458   0.0000  1.0000  1.0000  -0.4335   0.0000   0.0000   0.0000   0.2481
   0.200   0.0398   0.01431   0.00462   0.0003  1.0000  1.0000  -0.4451   0.0000   0.0000   0.0000   0.2409
   0.300   0.0476   0.01435   0.00467   0.0006  1.0000  1.0000  -0.4564   0.0000   0.0000   0.0000   0.2359
   0.400   0.0552   0.01439   0.00474   0.0009  1.0000  1.0000  -0.4680   0.0000   0.0000   0.0000   0.2321
   0.500   0.0623   0.01446   0.00482   0.0012  1.0000  1.0000  -0.4798   0.0000   0.0000   0.0000   0.2291
   0.600   0.0691   0.01454   0.00493   0.0015  1.0000  1.0000  -0.4911   0.0000   0.0000   0.0000   0.2266
   0.700   0.0752   0.01465   0.00506   0.0018  1.0000  1.0000  -0.5017   0.0000   0.0000   0.0000   0.2242
   0.800   0.0806   0.01480   0.00523   0.0020  1.0000  1.0000  -0.5115   0.0000   0.0000   0.0000   0.2220
   0.900   0.0855   0.01498   0.00542   0.0023  1.0000  1.0000  -0.5204   0.0000   0.0000   0.0000   0.2206
   1.000   0.0900   0.01521   0.00566   0.0024  1.0000  1.0000  -0.5286   0.0000   0.0000   0.0000   0.2205
   1.100   0.0943   0.01549   0.00595   0.0024  1.0000  1.0000  -0.5360   0.0000   0.0000   0.0000   0.2218
   1.200   0.1031   0.01583   0.00630   0.0013  0.9972  1.0000  -0.5469   0.0000   0.0000   0.0000   0.2342
   1.300   0.1561   0.01617   0.00678  -0.0074  0.9677  1.0000  -0.5996   0.0000   0.0000   0.0000   0.2948
   1.400   0.2089   0.01632   0.00711  -0.0152  0.9398  1.0000  -0.6576   0.0000   0.0000   0.0000   0.3208
   1.500   0.2476   0.01639   0.00727  -0.0199  0.9101  1.0000  -0.7072   0.0000   0.0000   0.0000   0.3284
   1.600   0.2720   0.01649   0.00739  -0.0217  0.8809  1.0000  -0.7451   0.0000   0.0000   0.0000   0.3278
   1.700   0.2888   0.01662   0.00751  -0.0219  0.8546  1.0000  -0.7747   0.0000   0.0000   0.0000   0.3239
   1.800   0.3003   0.01679   0.00764  -0.0212  0.8299  1.0000  -0.7982   0.0000   0.0000   0.0000   0.3186
   1.900   0.3097   0.01698   0.00778  -0.0201  0.8073  1.0000  -0.8196   0.0000   0.0000   0.0000   0.3129
   2.000   0.3180   0.01718   0.00792  -0.0188  0.7859  1.0000  -0.8412   0.0000   0.0000   0.0000   0.3072
   2.100   0.3260   0.01739   0.00807  -0.0176  0.7657  1.0000  -0.8633   0.0000   0.0000   0.0000   0.3018
   2.200   0.3338   0.01761   0.00822  -0.0163  0.7469  1.0000  -0.8856   0.0000   0.0000   0.0000   0.2966
   2.300   0.3417   0.01782   0.00835  -0.0149  0.7292  1.0000  -0.9080   0.0000   0.0000   0.0000   0.2915
   2.400   0.3498   0.01806   0.00855  -0.0140  0.7096  1.0000  -0.9300   0.0000   0.0000   0.0000   0.2877
   2.500   0.3580   0.01831   0.00875  -0.0130  0.6914  1.0000  -0.9524   0.0000   0.0000   0.0000   0.2841
   2.600   0.3664   0.01854   0.00891  -0.0119  0.6753  1.0000  -0.9755   0.0000   0.0000   0.0000   0.2802
   2.700   0.3749   0.01878   0.00911  -0.0110  0.6582  1.0000  -0.9986   0.0000   0.0000   0.0000   0.2770
   2.800   0.3837   0.01904   0.00934  -0.0103  0.6410  1.0000  -1.0214   0.0000   0.0000   0.0000   0.2744
   2.900   0.3921   0.01928   0.00947  -0.0091  0.6268  1.0000  -1.0453   0.0000   0.0000   0.0000   0.2709
   3.000   0.4011   0.01953   0.00984  -0.0085  0.6092  1.0000  -1.0706   0.0000   0.0000   0.0000   0.2687
   3.100   0.4100   0.01981   0.01008  -0.0078  0.5940  1.0000  -1.0976   0.0000   0.0000   0.0000   0.2664
   3.200   0.4189   0.02005   0.01025  -0.0069  0.5797  1.0000  -1.1255   0.0000   0.0000   0.0000   0.2639
   3.300   0.4284   0.02035   0.01055  -0.0064  0.5637  1.0000  -1.1556   0.0000   0.0000   0.0000   0.2624
   3.400   0.4373   0.02059   0.01068  -0.0055  0.5510  1.0000  -1.1890   0.0000   0.0000   0.0000   0.2599
   3.500   0.4470   0.02090   0.01104  -0.0052  0.5348  1.0000  -1.2213   0.0000   0.0000   0.0000   0.2589
   3.600   0.4560   0.02118   0.01118  -0.0042  0.5235  1.0000  -1.2609   0.0000   0.0000   0.0000   0.2566
   3.700   0.4659   0.02150   0.01159  -0.0040  0.5075  1.0000  -1.2974   0.0000   0.0000   0.0000   0.2559
   3.800   0.4749   0.02179   0.01173  -0.0031  0.4965  1.0000  -1.3376   0.0000   0.0000   0.0000   0.2538
   3.900   0.4849   0.02214   0.01218  -0.0030  0.4812  1.0000  -1.3743   0.0000   0.0000   0.0000   0.2533
   4.000   0.4940   0.02245   0.01233  -0.0021  0.4709  1.0000  -1.4152   0.0000   0.0000   0.0000   0.2514
   4.100   0.5041   0.02283   0.01284  -0.0020  0.4560  1.0000  -1.4513   0.0000   0.0000   0.0000   0.2511
   4.200   0.5133   0.02312   0.01299  -0.0012  0.4456  1.0000  -1.4929   0.0000   0.0000   0.0000   0.2493
   4.300   0.5232   0.02355   0.01354  -0.0011  0.4316  1.0000  -1.5288   0.0000   0.0000   0.0000   0.2490
   4.400   0.5326   0.02386   0.01374  -0.0004  0.4212  1.0000  -1.5752   0.0000   0.0000   0.0000   0.2476
   4.500   0.5425   0.02435   0.01432  -0.0002  0.4086  1.0000  -1.6182   0.0000   0.0000   0.0000   0.2472
   4.600   0.5519   0.02465   0.01456   0.0004  0.3975  1.0000  -1.6664   0.0000   0.0000   0.0000   0.2461
   4.700   0.5616   0.02513   0.01517   0.0007  0.3860  1.0000  -1.7107   0.0000   0.0000   0.0000   0.2455
   4.800   0.5712   0.02550   0.01555   0.0011  0.3746  1.0000  -1.7570   0.0000   0.0000   0.0000   0.2447
   4.900   0.5807   0.02596   0.01595   0.0016  0.3649  1.0000  -1.8043   0.0000   0.0000   0.0000   0.2438
   5.000   0.5904   0.02642   0.01652   0.0018  0.3527  1.0000  -1.8470   0.0000   0.0000   0.0000   0.2434
   5.100   0.5997   0.02677   0.01670   0.0026  0.3438  1.0000  -1.8993   0.0000   0.0000   0.0000   0.2422
   5.200   0.6095   0.02741   0.01756   0.0026  0.3321  1.0000  -1.9363   0.0000   0.0000   0.0000   0.2422
   5.300   0.6190   0.02775   0.01782   0.0031  0.3225  1.0000  -1.9861   0.0000   0.0000   0.0000   0.2413
   5.400   0.6284   0.02841   0.01857   0.0033  0.3124  1.0000  -2.0263   0.0000   0.0000   0.0000   0.2409
   5.500   0.6380   0.02886   0.01906   0.0037  0.3022  1.0000  -2.0707   0.0000   0.0000   0.0000   0.2404
   5.600   0.6474   0.02942   0.01948   0.0043  0.2945  1.0000  -2.1198   0.0000   0.0000   0.0000   0.2395
   5.700   0.6567   0.03021   0.02054   0.0042  0.2841  1.0000  -2.1503   0.0000   0.0000   0.0000   0.2396
   5.800   0.6663   0.03052   0.02075   0.0048  0.2753  1.0000  -2.2015   0.0000   0.0000   0.0000   0.2387
   5.900   0.6752   0.03138   0.02176   0.0050  0.2663  1.0000  -2.2344   0.0000   0.0000   0.0000   0.2385
   6.000   0.6846   0.03206   0.02252   0.0053  0.2578  1.0000  -2.2764   0.0000   0.0000   0.0000   0.2382
   6.100   0.6942   0.03260   0.02290   0.0058  0.2511  1.0000  -2.3538   0.0000   0.0000   0.0000   0.2374
   6.200   0.7025   0.03381   0.02444   0.0057  0.2431  1.0000  -2.4069   0.0000   0.0000   0.0000   0.2376
   6.300   0.7118   0.03430   0.02495   0.0061  0.2346  1.0000  -2.4954   0.0000   0.0000   0.0000   0.2371
   6.400   0.7209   0.03488   0.02537   0.0066  0.2275  1.0000  -2.5951   0.0000   0.0000   0.0000   0.2363
   6.500   0.7285   0.03630   0.02728   0.0064  0.2206  1.0000  -2.6374   0.0000   0.0000   0.0000   0.2367
   6.600   0.7375   0.03710   0.02814   0.0067  0.2140  1.0000  -2.7214   0.0000   0.0000   0.0000   0.2363
   6.700   0.7472   0.03756   0.02831   0.0074  0.2076  1.0000  -2.8394   0.0000   0.0000   0.0000   0.2354
   6.800   0.7533   0.03920   0.03046   0.0071  0.2011  1.0000  -2.8599   0.0000   0.0000   0.0000   0.2359
   6.900   0.7618   0.03990   0.03122   0.0074  0.1941  1.0000  -2.9411   0.0000   0.0000   0.0000   0.2356
   7.000   0.7718   0.04036   0.03148   0.0080  0.1889  1.0000  -3.0560   0.0000   0.0000   0.0000   0.2347
   7.100   0.7775   0.04237   0.03378   0.0078  0.1857  1.0000  -3.0783   0.0000   0.0000   0.0000   0.2351
   7.200   0.7820   0.04457   0.03636   0.0072  0.1823  1.0000  -3.0814   0.0000   0.0000   0.0000   0.2359
   7.300   0.7871   0.04639   0.03842   0.0068  0.1782  1.0000  -3.1060   0.0000   0.0000   0.0000   0.2364
   7.400   0.7998   0.04571   0.03745   0.0082  0.1709  1.0000  -3.2699   0.0000   0.0000   0.0000   0.2347
   7.500   0.8048   0.04744   0.03930   0.0081  0.1671  1.0000  -3.3104   0.0000   0.0000   0.0000   0.2348
   7.600   0.8065   0.05000   0.04222   0.0072  0.1647  1.0000  -3.2892   0.0000   0.0000   0.0000   0.2359
   7.700   0.8082   0.05261   0.04508   0.0063  0.1631  1.0000  -3.2726   0.0000   0.0000   0.0000   0.2371
   7.800   0.8092   0.05536   0.04804   0.0052  0.1623  1.0000  -3.2510   0.0000   0.0000   0.0000   0.2384
   7.900   0.8086   0.05834   0.05121   0.0039  0.1622  1.0000  -3.2157   0.0000   0.0000   0.0000   0.2400
   8.000   0.8069   0.06148   0.05450   0.0023  0.1625  1.0000  -3.1714   0.0000   0.0000   0.0000   0.2420
   8.100   0.8044   0.06470   0.05783   0.0005  0.1631  1.0000  -3.1223   0.0000   0.0000   0.0000   0.2442
   8.200   0.8017   0.06790   0.06111  -0.0013  0.1640  1.0000  -3.0742   0.0000   0.0000   0.0000   0.2465
   8.300   0.7994   0.07098   0.06425  -0.0031  0.1650  1.0000  -3.0328   0.0000   0.0000   0.0000   0.2486
   8.400   0.7979   0.07389   0.06720  -0.0046  0.1659  1.0000  -3.0019   0.0000   0.0000   0.0000   0.2505
   8.500   0.7978   0.07661   0.06994  -0.0058  0.1668  1.0000  -2.9848   0.0000   0.0000   0.0000   0.2520
   8.600   0.7991   0.07914   0.07249  -0.0066  0.1676  1.0000  -2.9826   0.0000   0.0000   0.0000   0.2529
   8.700   0.8010   0.08161   0.07498  -0.0072  0.1682  1.0000  -2.9866   0.0000   0.0000   0.0000   0.2536
   8.800   0.8030   0.08410   0.07747  -0.0078  0.1686  1.0000  -2.9916   0.0000   0.0000   0.0000   0.2543
   9.100   0.7049   0.11360   0.10653  -0.0461  0.3171  1.0000  -1.7534   0.0000   0.0000   0.0000   0.3104
   9.200   0.6906   0.11353   0.10639  -0.0474  0.3137  1.0000  -1.6910   0.0000   0.0000   0.0000   0.3136
   9.300   0.6865   0.11435   0.10718  -0.0479  0.3082  1.0000  -1.6792   0.0000   0.0000   0.0000   0.3147
   9.400   0.6904   0.11587   0.10872  -0.0479  0.3036  1.0000  -1.7059   0.0000   0.0000   0.0000   0.3142
   9.500   0.6992   0.11795   0.11083  -0.0475  0.3001  1.0000  -1.7558   0.0000   0.0000   0.0000   0.3127
   9.600   0.7184   0.12155   0.11452  -0.0464  0.2970  1.0000  -1.8543   0.0000   0.0000   0.0000   0.3094
   9.700   0.7359   0.12636   0.11939  -0.0457  0.2951  1.0000  -1.9385   0.0000   0.0000   0.0000   0.3068
   9.800   0.7180   0.12564   0.11858  -0.0475  0.2941  1.0000  -1.8554   0.0000   0.0000   0.0000   0.3108
   9.900   0.6997   0.12471   0.11756  -0.0491  0.2908  1.0000  -1.7726   0.0000   0.0000   0.0000   0.3147
  10.000   0.6948   0.12539   0.11822  -0.0498  0.2862  1.0000  -1.7542   0.0000   0.0000   0.0000   0.3161
  10.100   0.6964   0.12678   0.11962  -0.0500  0.2822  1.0000  -1.7678   0.0000   0.0000   0.0000   0.3162
  10.200   0.7022   0.12859   0.12145  -0.0499  0.2787  1.0000  -1.8028   0.0000   0.0000   0.0000   0.3154
  10.300   0.7403   0.13554   0.12863  -0.0470  0.2720  1.0000  -2.0063   0.0000   0.0000   0.0000   0.3078
  10.400   0.7287   0.13553   0.12855  -0.0484  0.2714  1.0000  -1.9491   0.0000   0.0000   0.0000   0.3107
  10.500   0.7166   0.13532   0.12828  -0.0499  0.2701  1.0000  -1.8897   0.0000   0.0000   0.0000   0.3138
  10.600   0.7066   0.13528   0.12820  -0.0512  0.2670  1.0000  -1.8406   0.0000   0.0000   0.0000   0.3164
  10.700   0.7040   0.13609   0.12899  -0.0517  0.2620  1.0000  -1.8340   0.0000   0.0000   0.0000   0.3174
  10.800   0.7149   0.13805   0.13101  -0.0508  0.2547  1.0000  -1.9050   0.0000   0.0000   0.0000   0.3150
  10.900   0.7481   0.14510   0.13818  -0.0482  0.2497  1.0000  -2.0793   0.0000   0.0000   0.0000   0.3083
  11.000   0.7346   0.14455   0.13756  -0.0499  0.2490  1.0000  -2.0106   0.0000   0.0000   0.0000   0.3118
  11.100   0.7209   0.14385   0.13680  -0.0516  0.2471  1.0000  -1.9421   0.0000   0.0000   0.0000   0.3153
  11.200   0.7137   0.14405   0.13696  -0.0527  0.2437  1.0000  -1.9069   0.0000   0.0000   0.0000   0.3175
  11.300   0.7130   0.14516   0.13807  -0.0532  0.2400  1.0000  -1.9059   0.0000   0.0000   0.0000   0.3181
  11.400   0.7159   0.14669   0.13961  -0.0534  0.2367  1.0000  -1.9236   0.0000   0.0000   0.0000   0.3180
  11.500   0.7226   0.14871   0.14166  -0.0532  0.2335  1.0000  -1.9620   0.0000   0.0000   0.0000   0.3170
  11.600   0.7405   0.15271   0.14574  -0.0520  0.2303  1.0000  -2.0554   0.0000   0.0000   0.0000   0.3135
  11.700   0.7601   0.15879   0.15189  -0.0508  0.2283  1.0000  -2.1464   0.0000   0.0000   0.0000   0.3102
  11.800   0.7481   0.15814   0.15117  -0.0525  0.2277  1.0000  -2.0845   0.0000   0.0000   0.0000   0.3134
  11.900   0.7360   0.15731   0.15029  -0.0541  0.2265  1.0000  -2.0228   0.0000   0.0000   0.0000   0.3166
  12.000   0.7274   0.15700   0.14994  -0.0555  0.2240  1.0000  -1.9775   0.0000   0.0000   0.0000   0.3193
  12.100   0.7251   0.15778   0.15070  -0.0563  0.2207  1.0000  -1.9640   0.0000   0.0000   0.0000   0.3205
  12.200   0.7264   0.15911   0.15204  -0.0567  0.2175  1.0000  -1.9695   0.0000   0.0000   0.0000   0.3208
  12.300   0.7303   0.16080   0.15375  -0.0568  0.2145  1.0000  -1.9892   0.0000   0.0000   0.0000   0.3205
  12.400   0.7386   0.16324   0.15622  -0.0564  0.2115  1.0000  -2.0310   0.0000   0.0000   0.0000   0.3191
  12.500   0.7655   0.17091   0.16399  -0.0542  0.2074  1.0000  -2.1574   0.0000   0.0000   0.0000   0.3136
  12.600   0.7566   0.17049   0.16352  -0.0557  0.2069  1.0000  -2.1085   0.0000   0.0000   0.0000   0.3163
  12.700   0.7480   0.16995   0.16294  -0.0572  0.2059  1.0000  -2.0605   0.0000   0.0000   0.0000   0.3190
  12.800   0.7409   0.16962   0.16257  -0.0586  0.2039  1.0000  -2.0197   0.0000   0.0000   0.0000   0.3215
  12.900   0.7384   0.17013   0.16307  -0.0595  0.2004  1.0000  -2.0015   0.0000   0.0000   0.0000   0.3229
  13.000   0.7406   0.17140   0.16434  -0.0598  0.1959  1.0000  -2.0101   0.0000   0.0000   0.0000   0.3230
  13.100   0.7835   0.18251   0.17563  -0.0553  0.1878  1.0000  -2.2158   0.0000   0.0000   0.0000   0.3129
  13.200   0.7750   0.18199   0.17506  -0.0570  0.1875  1.0000  -2.1663   0.0000   0.0000   0.0000   0.3157
  13.300   0.7665   0.18126   0.17429  -0.0586  0.1869  1.0000  -2.1169   0.0000   0.0000   0.0000   0.3185
  13.400   0.7584   0.18047   0.17346  -0.0601  0.1860  1.0000  -2.0695   0.0000   0.0000   0.0000   0.3212
  13.500   0.7528   0.18015   0.17311  -0.0615  0.1841  1.0000  -2.0320   0.0000   0.0000   0.0000   0.3235
  13.600   0.7513   0.18081   0.17376  -0.0624  0.1814  1.0000  -2.0135   0.0000   0.0000   0.0000   0.3248
  13.700   0.7525   0.18205   0.17501  -0.0630  0.1785  1.0000  -2.0089   0.0000   0.0000   0.0000   0.3254
  13.800   0.7555   0.18365   0.17661  -0.0633  0.1758  1.0000  -2.0138   0.0000   0.0000   0.0000   0.3253
  13.900   0.7610   0.18577   0.17876  -0.0632  0.1731  1.0000  -2.0313   0.0000   0.0000   0.0000   0.3245
  14.000   0.7980   0.19817   0.19128  -0.0595  0.1688  1.0000  -2.1709   0.0000   0.0000   0.0000   0.3162
  14.100   0.7907   0.19743   0.19051  -0.0612  0.1685  1.0000  -2.1257   0.0000   0.0000   0.0000   0.3188
  14.200   0.7833   0.19647   0.18951  -0.0627  0.1681  1.0000  -2.0815   0.0000   0.0000   0.0000   0.3213
  14.300   0.7765   0.19547   0.18848  -0.0642  0.1674  1.0000  -2.0381   0.0000   0.0000   0.0000   0.3239
  14.400   0.7715   0.19484   0.18782  -0.0658  0.1661  1.0000  -1.9988   0.0000   0.0000   0.0000   0.3263
  14.500   0.7697   0.19516   0.18812  -0.0670  0.1638  1.0000  -1.9723   0.0000   0.0000   0.0000   0.3280
  14.600   0.7705   0.19622   0.18917  -0.0678  0.1612  1.0000  -1.9582   0.0000   0.0000   0.0000   0.3288
  14.700   0.7731   0.19767   0.19063  -0.0682  0.1582  1.0000  -1.9540   0.0000   0.0000   0.0000   0.3290
  14.800   0.7798   0.20006   0.19305  -0.0678  0.1543  1.0000  -1.9736   0.0000   0.0000   0.0000   0.3276
  14.900   0.7973   0.20788   0.20092  -0.0658  0.1501  1.0000  -2.0306   0.0000   0.0000   0.0000   0.3232
  15.000   0.7919   0.20694   0.19994  -0.0674  0.1496  1.0000  -1.9892   0.0000   0.0000   0.0000   0.3257


