xflr5 v6.61

 Calculated polar for: S8025 (8%)

 1 1 Reynolds number fixed          Mach number fixed         

 xtrf =   1.000 (top)        1.000 (bottom)
 Mach =   0.000     Re =     0.400 e 6     Ncrit =   9.000

  alpha     CL        CD       CDp       Cm    Top Xtr Bot Xtr   Cpmin    Chinge    XCp    
 ------- -------- --------- --------- -------- ------- ------- -------- --------- ---------
 -10.000  -0.6885   0.10820   0.10573   0.0294  1.0000  0.0210  -2.5137   0.0000   0.0000   0.0000   0.2869
  -9.900  -0.6890   0.10589   0.10344   0.0281  1.0000  0.0210  -2.5548   0.0000   0.0000   0.0000   0.2851
  -9.800  -0.6896   0.10352   0.10107   0.0268  1.0000  0.0210  -2.5988   0.0000   0.0000   0.0000   0.2832
  -9.700  -0.7035   0.09857   0.09616   0.0246  1.0000  0.0214  -2.7755   0.0000   0.0000   0.0000   0.2793
  -9.600  -0.7071   0.09612   0.09373   0.0235  1.0000  0.0216  -2.8117   0.0000   0.0000   0.0000   0.2776
  -9.500  -0.7087   0.09412   0.09174   0.0225  1.0000  0.0218  -2.8236   0.0000   0.0000   0.0000   0.2762
  -7.100  -0.7127   0.03221   0.02763  -0.0102  1.0000  0.0143  -4.1768   0.0000   0.0000   0.0000   0.2308
  -7.000  -0.7180   0.02389   0.01845  -0.0089  1.0000  0.0099  -4.8791   0.0000   0.0000   0.0000   0.2326
  -6.900  -0.7079   0.02340   0.01782  -0.0085  1.0000  0.0095  -4.8269   0.0000   0.0000   0.0000   0.2330
  -6.800  -0.6978   0.02304   0.01737  -0.0083  1.0000  0.0093  -4.7355   0.0000   0.0000   0.0000   0.2333
  -6.700  -0.6876   0.02271   0.01698  -0.0081  1.0000  0.0092  -4.6333   0.0000   0.0000   0.0000   0.2335
  -6.600  -0.6775   0.02238   0.01660  -0.0079  1.0000  0.0091  -4.5297   0.0000   0.0000   0.0000   0.2337
  -6.500  -0.6686   0.02136   0.01549  -0.0075  1.0000  0.0089  -4.4881   0.0000   0.0000   0.0000   0.2341
  -6.400  -0.6604   0.01997   0.01396  -0.0071  1.0000  0.0088  -4.4870   0.0000   0.0000   0.0000   0.2346
  -6.300  -0.6514   0.01900   0.01288  -0.0068  1.0000  0.0087  -4.4497   0.0000   0.0000   0.0000   0.2350
  -6.200  -0.6421   0.01818   0.01197  -0.0065  1.0000  0.0086  -4.4003   0.0000   0.0000   0.0000   0.2355
  -6.100  -0.6327   0.01745   0.01116  -0.0061  1.0000  0.0085  -4.3435   0.0000   0.0000   0.0000   0.2359
  -6.000  -0.6232   0.01679   0.01043  -0.0058  1.0000  0.0085  -4.2814   0.0000   0.0000   0.0000   0.2364
  -5.900  -0.6136   0.01619   0.00976  -0.0055  1.0000  0.0085  -4.2154   0.0000   0.0000   0.0000   0.2368
  -5.800  -0.6040   0.01563   0.00915  -0.0052  1.0000  0.0085  -4.1459   0.0000   0.0000   0.0000   0.2372
  -5.700  -0.5943   0.01512   0.00859  -0.0049  1.0000  0.0085  -4.0735   0.0000   0.0000   0.0000   0.2377
  -5.600  -0.5845   0.01464   0.00807  -0.0046  1.0000  0.0085  -3.9985   0.0000   0.0000   0.0000   0.2381
  -5.500  -0.5746   0.01420   0.00758  -0.0043  1.0000  0.0086  -3.9211   0.0000   0.0000   0.0000   0.2385
  -5.400  -0.5647   0.01380   0.00714  -0.0040  1.0000  0.0087  -3.8415   0.0000   0.0000   0.0000   0.2389
  -5.300  -0.5546   0.01343   0.00672  -0.0038  1.0000  0.0088  -3.7595   0.0000   0.0000   0.0000   0.2393
  -5.200  -0.5445   0.01309   0.00634  -0.0036  1.0000  0.0089  -3.6750   0.0000   0.0000   0.0000   0.2397
  -5.100  -0.5342   0.01278   0.00600  -0.0033  1.0000  0.0090  -3.5869   0.0000   0.0000   0.0000   0.2400
  -5.000  -0.5243   0.01235   0.00547  -0.0031  1.0000  0.0093  -3.5162   0.0000   0.0000   0.0000   0.2405
  -4.900  -0.5143   0.01189   0.00493  -0.0028  1.0000  0.0100  -3.4704   0.0000   0.0000   0.0000   0.2410
  -4.800  -0.5040   0.01157   0.00457  -0.0025  1.0000  0.0111  -3.4024   0.0000   0.0000   0.0000   0.2414
  -4.700  -0.4935   0.01131   0.00429  -0.0023  1.0000  0.0127  -3.3267   0.0000   0.0000   0.0000   0.2418
  -4.600  -0.4834   0.01087   0.00386  -0.0020  1.0000  0.0202  -3.3100   0.0000   0.0000   0.0000   0.2424
  -4.500  -0.4743   0.01028   0.00353  -0.0018  1.0000  0.0590  -3.2617   0.0000   0.0000   0.0000   0.2429
  -4.400  -0.4639   0.01007   0.00340  -0.0016  1.0000  0.0724  -3.1461   0.0000   0.0000   0.0000   0.2431
  -4.300  -0.4535   0.00990   0.00329  -0.0015  1.0000  0.0836  -3.0233   0.0000   0.0000   0.0000   0.2434
  -4.200  -0.4431   0.00972   0.00318  -0.0014  1.0000  0.0957  -2.8990   0.0000   0.0000   0.0000   0.2436
  -4.100  -0.4327   0.00954   0.00307  -0.0013  1.0000  0.1099  -2.7745   0.0000   0.0000   0.0000   0.2438
  -4.000  -0.4224   0.00936   0.00297  -0.0012  1.0000  0.1256  -2.6508   0.0000   0.0000   0.0000   0.2441
  -3.900  -0.4121   0.00917   0.00288  -0.0011  1.0000  0.1449  -2.5283   0.0000   0.0000   0.0000   0.2443
  -3.800  -0.4018   0.00898   0.00280  -0.0010  1.0000  0.1662  -2.4071   0.0000   0.0000   0.0000   0.2446
  -3.700  -0.3916   0.00878   0.00271  -0.0009  1.0000  0.1889  -2.2880   0.0000   0.0000   0.0000   0.2449
  -3.600  -0.3813   0.00858   0.00263  -0.0007  1.0000  0.2120  -2.1708   0.0000   0.0000   0.0000   0.2452
  -3.500  -0.3711   0.00840   0.00255  -0.0006  1.0000  0.2341  -2.0553   0.0000   0.0000   0.0000   0.2455
  -3.400  -0.3606   0.00826   0.00247  -0.0005  1.0000  0.2532  -1.9417   0.0000   0.0000   0.0000   0.2459
  -3.300  -0.3502   0.00812   0.00237  -0.0003  1.0000  0.2709  -1.8342   0.0000   0.0000   0.0000   0.2463
  -3.200  -0.3398   0.00797   0.00230  -0.0002  1.0000  0.2888  -1.7229   0.0000   0.0000   0.0000   0.2467
  -3.100  -0.3294   0.00784   0.00223  -0.0001  1.0000  0.3061  -1.6232   0.0000   0.0000   0.0000   0.2471
  -3.000  -0.3189   0.00772   0.00216   0.0001  1.0000  0.3237  -1.5398   0.0000   0.0000   0.0000   0.2476
  -2.900  -0.3085   0.00760   0.00210   0.0002  1.0000  0.3428  -1.4578   0.0000   0.0000   0.0000   0.2482
  -2.800  -0.2982   0.00746   0.00205   0.0004  1.0000  0.3633  -1.3777   0.0000   0.0000   0.0000   0.2488
  -2.700  -0.2879   0.00733   0.00200   0.0006  1.0000  0.3845  -1.2989   0.0000   0.0000   0.0000   0.2494
  -2.600  -0.2776   0.00720   0.00195   0.0007  1.0000  0.4059  -1.2214   0.0000   0.0000   0.0000   0.2502
  -2.500  -0.2673   0.00708   0.00191   0.0009  1.0000  0.4271  -1.1453   0.0000   0.0000   0.0000   0.2510
  -2.400  -0.2569   0.00697   0.00187   0.0011  1.0000  0.4482  -1.0705   0.0000   0.0000   0.0000   0.2518
  -2.300  -0.2467   0.00685   0.00183   0.0013  1.0000  0.4693  -0.9973   0.0000   0.0000   0.0000   0.2528
  -2.200  -0.2365   0.00674   0.00180   0.0015  1.0000  0.4917  -0.9257   0.0000   0.0000   0.0000   0.2540
  -2.100  -0.2263   0.00662   0.00178   0.0017  1.0000  0.5160  -0.8558   0.0000   0.0000   0.0000   0.2553
  -2.000  -0.2163   0.00650   0.00176   0.0020  1.0000  0.5404  -0.8119   0.0000   0.0000   0.0000   0.2568
  -1.900  -0.2062   0.00640   0.00174   0.0022  1.0000  0.5642  -0.7845   0.0000   0.0000   0.0000   0.2585
  -1.800  -0.1961   0.00629   0.00173   0.0025  1.0000  0.5871  -0.7583   0.0000   0.0000   0.0000   0.2605
  -1.700  -0.1860   0.00620   0.00168   0.0027  1.0000  0.6087  -0.7322   0.0000   0.0000   0.0000   0.2626
  -1.600  -0.1758   0.00612   0.00167   0.0030  1.0000  0.6285  -0.7063   0.0000   0.0000   0.0000   0.2649
  -1.500  -0.1658   0.00604   0.00167   0.0033  1.0000  0.6469  -0.6807   0.0000   0.0000   0.0000   0.2677
  -1.400  -0.1557   0.00596   0.00166   0.0035  1.0000  0.6639  -0.6552   0.0000   0.0000   0.0000   0.2707
  -1.300  -0.1384   0.00589   0.00166   0.0023  0.9907  0.6843  -0.6210   0.0000   0.0000   0.0000   0.2643
  -1.100  -0.1042   0.00575   0.00166  -0.0001  0.9633  0.7272  -0.5543   0.0000   0.0000   0.0000   0.2472
  -1.000  -0.0875   0.00568   0.00166  -0.0011  0.9445  0.7486  -0.5254   0.0000   0.0000   0.0000   0.2357
  -0.900  -0.0721   0.00563   0.00166  -0.0017  0.9223  0.7686  -0.4979   0.0000   0.0000   0.0000   0.2237
  -0.800  -0.0598   0.00560   0.00165  -0.0016  0.8969  0.7873  -0.4740   0.0000   0.0000   0.0000   0.2202
  -0.700  -0.0499   0.00559   0.00164  -0.0010  0.8714  0.8055  -0.4527   0.0000   0.0000   0.0000   0.2270
  -0.600  -0.0409   0.00560   0.00163  -0.0002  0.8464  0.8238  -0.4325   0.0000   0.0000   0.0000   0.2421
  -0.500  -0.0322   0.00561   0.00162   0.0006  0.8228  0.8424  -0.4137   0.0000   0.0000   0.0000   0.2673
  -0.400  -0.0234   0.00564   0.00161   0.0015  0.8009  0.8612  -0.3980   0.0000   0.0000   0.0000   0.3101
  -0.300  -0.0143   0.00566   0.00161   0.0022  0.7803  0.8799  -0.3823   0.0000   0.0000   0.0000   0.4019
  -0.200  -0.0046   0.00570   0.00160   0.0028  0.7608  0.8983  -0.3952   0.0000   0.0000   0.0000   0.8623
  -0.100   0.0064   0.00574   0.00160   0.0031  0.7423  0.9162  -0.4097   0.0000   0.0000   0.0000  -0.2451
   0.000   0.0189   0.00580   0.00159   0.0031  0.7245  0.9323  -0.4255   0.0000   0.0000   0.0000   0.0852
   0.100   0.0331   0.00586   0.00158   0.0026  0.7070  0.9461  -0.4424   0.0000   0.0000   0.0000   0.1686
   0.200   0.0482   0.00591   0.00158   0.0019  0.6906  0.9577  -0.4612   0.0000   0.0000   0.0000   0.2084
   0.300   0.0638   0.00598   0.00157   0.0011  0.6742  0.9680  -0.4810   0.0000   0.0000   0.0000   0.2313
   0.400   0.0800   0.00604   0.00156   0.0001  0.6566  0.9778  -0.5014   0.0000   0.0000   0.0000   0.2469
   0.500   0.0966   0.00610   0.00155  -0.0010  0.6391  0.9866  -0.5222   0.0000   0.0000   0.0000   0.2584
   0.600   0.1136   0.00617   0.00153  -0.0022  0.6212  0.9941  -0.5435   0.0000   0.0000   0.0000   0.2677
   0.800   0.1407   0.00630   0.00150  -0.0032  0.5870  1.0000  -0.5807   0.0000   0.0000   0.0000   0.2711
   0.900   0.1508   0.00637   0.00149  -0.0030  0.5720  1.0000  -0.5967   0.0000   0.0000   0.0000   0.2682
   1.000   0.1611   0.00644   0.00149  -0.0028  0.5564  1.0000  -0.6131   0.0000   0.0000   0.0000   0.2656
   1.100   0.1713   0.00650   0.00149  -0.0027  0.5424  1.0000  -0.6310   0.0000   0.0000   0.0000   0.2634
   1.200   0.1816   0.00657   0.00149  -0.0025  0.5280  1.0000  -0.6489   0.0000   0.0000   0.0000   0.2614
   1.300   0.1919   0.00664   0.00151  -0.0023  0.5152  1.0000  -0.6670   0.0000   0.0000   0.0000   0.2597
   1.400   0.2022   0.00671   0.00152  -0.0021  0.5021  1.0000  -0.6869   0.0000   0.0000   0.0000   0.2582
   1.500   0.2126   0.00677   0.00153  -0.0019  0.4903  1.0000  -0.7095   0.0000   0.0000   0.0000   0.2568
   1.600   0.2230   0.00684   0.00154  -0.0017  0.4776  1.0000  -0.7323   0.0000   0.0000   0.0000   0.2556
   1.700   0.2334   0.00691   0.00156  -0.0016  0.4658  1.0000  -0.7551   0.0000   0.0000   0.0000   0.2544
   1.800   0.2438   0.00698   0.00157  -0.0014  0.4532  1.0000  -0.7782   0.0000   0.0000   0.0000   0.2534
   1.900   0.2542   0.00706   0.00159  -0.0012  0.4415  1.0000  -0.8023   0.0000   0.0000   0.0000   0.2525
   2.000   0.2647   0.00712   0.00162  -0.0011  0.4299  1.0000  -0.8286   0.0000   0.0000   0.0000   0.2517
   2.100   0.2751   0.00722   0.00164  -0.0009  0.4187  1.0000  -0.8548   0.0000   0.0000   0.0000   0.2509
   2.200   0.2857   0.00727   0.00167  -0.0008  0.4087  1.0000  -0.8816   0.0000   0.0000   0.0000   0.2502
   2.300   0.2962   0.00735   0.00170  -0.0006  0.3980  1.0000  -0.9084   0.0000   0.0000   0.0000   0.2496
   2.400   0.3067   0.00742   0.00173  -0.0005  0.3882  1.0000  -0.9354   0.0000   0.0000   0.0000   0.2490
   2.500   0.3173   0.00749   0.00177  -0.0003  0.3775  1.0000  -0.9626   0.0000   0.0000   0.0000   0.2485
   2.600   0.3277   0.00760   0.00180  -0.0002  0.3671  1.0000  -0.9898   0.0000   0.0000   0.0000   0.2479
   2.700   0.3384   0.00765   0.00184  -0.0001  0.3573  1.0000  -1.0176   0.0000   0.0000   0.0000   0.2475
   2.800   0.3489   0.00775   0.00188   0.0001  0.3468  1.0000  -1.0452   0.0000   0.0000   0.0000   0.2470
   2.900   0.3596   0.00782   0.00193   0.0002  0.3375  1.0000  -1.0732   0.0000   0.0000   0.0000   0.2467
   3.000   0.3702   0.00790   0.00201   0.0003  0.3270  1.0000  -1.1013   0.0000   0.0000   0.0000   0.2463
   3.100   0.3807   0.00801   0.00207   0.0004  0.3172  1.0000  -1.1305   0.0000   0.0000   0.0000   0.2459
   3.200   0.3914   0.00807   0.00211   0.0006  0.3079  1.0000  -1.1629   0.0000   0.0000   0.0000   0.2456
   3.300   0.4019   0.00818   0.00217   0.0007  0.2983  1.0000  -1.1952   0.0000   0.0000   0.0000   0.2453
   3.400   0.4126   0.00826   0.00222   0.0008  0.2900  1.0000  -1.2349   0.0000   0.0000   0.0000   0.2450
   3.500   0.4233   0.00834   0.00228   0.0009  0.2811  1.0000  -1.2788   0.0000   0.0000   0.0000   0.2447
   3.600   0.4338   0.00846   0.00234   0.0010  0.2721  1.0000  -1.3227   0.0000   0.0000   0.0000   0.2445
   3.700   0.4446   0.00852   0.00240   0.0011  0.2643  1.0000  -1.3677   0.0000   0.0000   0.0000   0.2442
   3.800   0.4552   0.00862   0.00247   0.0012  0.2555  1.0000  -1.4128   0.0000   0.0000   0.0000   0.2440
   3.900   0.4658   0.00873   0.00254   0.0013  0.2476  1.0000  -1.4581   0.0000   0.0000   0.0000   0.2437
   4.000   0.4766   0.00881   0.00261   0.0014  0.2401  1.0000  -1.5050   0.0000   0.0000   0.0000   0.2435
   4.100   0.4872   0.00892   0.00268   0.0015  0.2322  1.0000  -1.5591   0.0000   0.0000   0.0000   0.2433
   4.200   0.4979   0.00902   0.00277   0.0016  0.2253  1.0000  -1.6139   0.0000   0.0000   0.0000   0.2431
   4.300   0.5086   0.00910   0.00284   0.0017  0.2180  1.0000  -1.6695   0.0000   0.0000   0.0000   0.2429
   4.400   0.5191   0.00923   0.00292   0.0019  0.2103  1.0000  -1.7250   0.0000   0.0000   0.0000   0.2427
   4.500   0.5299   0.00933   0.00305   0.0020  0.2036  1.0000  -1.7823   0.0000   0.0000   0.0000   0.2425
   4.600   0.5405   0.00943   0.00314   0.0021  0.1962  1.0000  -1.8395   0.0000   0.0000   0.0000   0.2424
   4.700   0.5510   0.00959   0.00324   0.0022  0.1882  1.0000  -1.8961   0.0000   0.0000   0.0000   0.2422
   4.800   0.5618   0.00966   0.00333   0.0022  0.1819  1.0000  -1.9545   0.0000   0.0000   0.0000   0.2420
   4.900   0.5724   0.00979   0.00342   0.0023  0.1745  1.0000  -2.0127   0.0000   0.0000   0.0000   0.2418
   5.000   0.5829   0.00993   0.00353   0.0024  0.1673  1.0000  -2.0709   0.0000   0.0000   0.0000   0.2417
   5.100   0.5936   0.01002   0.00363   0.0025  0.1606  1.0000  -2.1306   0.0000   0.0000   0.0000   0.2415
   5.200   0.6041   0.01017   0.00373   0.0026  0.1532  1.0000  -2.1899   0.0000   0.0000   0.0000   0.2414
   5.300   0.6148   0.01029   0.00385   0.0027  0.1470  1.0000  -2.2500   0.0000   0.0000   0.0000   0.2412
   5.400   0.6254   0.01040   0.00395   0.0028  0.1404  1.0000  -2.3107   0.0000   0.0000   0.0000   0.2411
   5.500   0.6357   0.01059   0.00409   0.0029  0.1334  1.0000  -2.3705   0.0000   0.0000   0.0000   0.2409
   5.600   0.6465   0.01068   0.00420   0.0030  0.1282  1.0000  -2.4323   0.0000   0.0000   0.0000   0.2407
   5.700   0.6570   0.01083   0.00432   0.0031  0.1219  1.0000  -2.4938   0.0000   0.0000   0.0000   0.2406
   5.800   0.6674   0.01101   0.00447   0.0032  0.1157  1.0000  -2.5734   0.0000   0.0000   0.0000   0.2404
   5.900   0.6781   0.01112   0.00460   0.0033  0.1102  1.0000  -2.6886   0.0000   0.0000   0.0000   0.2403
   6.000   0.6884   0.01132   0.00475   0.0034  0.1041  1.0000  -2.8031   0.0000   0.0000   0.0000   0.2401
   6.100   0.6989   0.01147   0.00494   0.0035  0.0991  1.0000  -2.9259   0.0000   0.0000   0.0000   0.2400
   6.200   0.7095   0.01161   0.00508   0.0036  0.0940  1.0000  -3.0471   0.0000   0.0000   0.0000   0.2398
   6.300   0.7196   0.01185   0.00528   0.0037  0.0886  1.0000  -3.1654   0.0000   0.0000   0.0000   0.2397
   6.400   0.7302   0.01198   0.00544   0.0038  0.0847  1.0000  -3.2880   0.0000   0.0000   0.0000   0.2395
   6.500   0.7407   0.01214   0.00560   0.0039  0.0802  1.0000  -3.4118   0.0000   0.0000   0.0000   0.2393
   6.600   0.7507   0.01242   0.00584   0.0040  0.0751  1.0000  -3.5320   0.0000   0.0000   0.0000   0.2391
   6.700   0.7613   0.01256   0.00601   0.0041  0.0717  1.0000  -3.6580   0.0000   0.0000   0.0000   0.2390
   6.800   0.7717   0.01274   0.00620   0.0043  0.0676  1.0000  -3.7848   0.0000   0.0000   0.0000   0.2388
   6.900   0.7813   0.01311   0.00652   0.0044  0.0628  1.0000  -3.9040   0.0000   0.0000   0.0000   0.2386
   7.000   0.7918   0.01327   0.00672   0.0045  0.0599  1.0000  -4.0325   0.0000   0.0000   0.0000   0.2384
   7.100   0.8022   0.01346   0.00694   0.0046  0.0566  1.0000  -4.1616   0.0000   0.0000   0.0000   0.2382
   7.200   0.8119   0.01381   0.00725   0.0048  0.0530  1.0000  -4.2855   0.0000   0.0000   0.0000   0.2380
   7.300   0.8217   0.01414   0.00760   0.0050  0.0502  1.0000  -4.4082   0.0000   0.0000   0.0000   0.2378
   7.400   0.8321   0.01431   0.00781   0.0051  0.0479  1.0000  -4.5416   0.0000   0.0000   0.0000   0.2376
   7.500   0.8423   0.01452   0.00803   0.0052  0.0457  1.0000  -4.6764   0.0000   0.0000   0.0000   0.2374
   7.600   0.8521   0.01483   0.00834   0.0053  0.0435  1.0000  -4.8072   0.0000   0.0000   0.0000   0.2372
   7.800   0.8710   0.01563   0.00923   0.0058  0.0403  1.0000  -5.0479   0.0000   0.0000   0.0000   0.2367
   7.900   0.8811   0.01587   0.00951   0.0059  0.0392  1.0000  -5.1815   0.0000   0.0000   0.0000   0.2365
   8.000   0.8911   0.01614   0.00982   0.0061  0.0380  1.0000  -5.3152   0.0000   0.0000   0.0000   0.2363
   8.100   0.9010   0.01641   0.01013   0.0062  0.0369  1.0000  -5.4502   0.0000   0.0000   0.0000   0.2361
   8.200   0.9107   0.01670   0.01045   0.0064  0.0359  1.0000  -5.5867   0.0000   0.0000   0.0000   0.2359
   8.300   0.9203   0.01703   0.01080   0.0065  0.0349  1.0000  -5.7226   0.0000   0.0000   0.0000   0.2356
   8.400   0.9291   0.01753   0.01129   0.0067  0.0336  1.0000  -5.8499   0.0000   0.0000   0.0000   0.2354
   8.500   0.9370   0.01826   0.01207   0.0070  0.0322  1.0000  -5.9598   0.0000   0.0000   0.0000   0.2350
   8.600   0.9479   0.01826   0.01212   0.0071  0.0313  1.0000  -6.1212   0.0000   0.0000   0.0000   0.2350
   8.700   0.9584   0.01832   0.01223   0.0071  0.0301  1.0000  -6.2820   0.0000   0.0000   0.0000   0.2349
   8.800   0.9688   0.01841   0.01234   0.0072  0.0287  1.0000  -6.4444   0.0000   0.0000   0.0000   0.2348
   8.900   0.9789   0.01855   0.01249   0.0072  0.0275  1.0000  -6.6057   0.0000   0.0000   0.0000   0.2347
   9.000   0.9885   0.01883   0.01279   0.0073  0.0265  1.0000  -6.7565   0.0000   0.0000   0.0000   0.2345
   9.100   0.9964   0.01945   0.01342   0.0075  0.0253  1.0000  -6.8791   0.0000   0.0000   0.0000   0.2343
   9.200   1.0042   0.02014   0.01418   0.0078  0.0243  1.0000  -6.9905   0.0000   0.0000   0.0000   0.2339
   9.300   1.0145   0.02027   0.01437   0.0079  0.0237  1.0000  -7.1454   0.0000   0.0000   0.0000   0.2338
   9.400   1.0244   0.02047   0.01466   0.0080  0.0227  1.0000  -7.2969   0.0000   0.0000   0.0000   0.2336
   9.500   1.0342   0.02066   0.01491   0.0081  0.0216  1.0000  -7.4475   0.0000   0.0000   0.0000   0.2335
   9.600   1.0441   0.02083   0.01509   0.0082  0.0204  1.0000  -7.6033   0.0000   0.0000   0.0000   0.2334
   9.700   1.0529   0.02120   0.01546   0.0082  0.0189  1.0000  -7.7422   0.0000   0.0000   0.0000   0.2332
   9.800   1.0599   0.02198   0.01633   0.0085  0.0171  1.0000  -7.8100   0.0000   0.0000   0.0000   0.2329
   9.900   1.0707   0.02201   0.01641   0.0086  0.0147  1.0000  -7.9193   0.0000   0.0000   0.0000   0.2328
  10.000   1.0788   0.02251   0.01691   0.0086  0.0129  1.0000  -8.0105   0.0000   0.0000   0.0000   0.2326
  10.100   1.0836   0.02369   0.01819   0.0090  0.0116  1.0000  -8.0058   0.0000   0.0000   0.0000   0.2322
  10.200   1.0925   0.02406   0.01864   0.0092  0.0109  1.0000  -8.1084   0.0000   0.0000   0.0000   0.2320
  10.300   1.1009   0.02450   0.01915   0.0094  0.0102  1.0000  -8.2185   0.0000   0.0000   0.0000   0.2317
  10.400   1.1093   0.02490   0.01959   0.0095  0.0097  1.0000  -8.3459   0.0000   0.0000   0.0000   0.2315
  10.500   1.1179   0.02525   0.01998   0.0096  0.0092  1.0000  -8.4892   0.0000   0.0000   0.0000   0.2314
  10.600   1.1262   0.02563   0.02039   0.0097  0.0088  1.0000  -8.6387   0.0000   0.0000   0.0000   0.2312
  10.700   1.1333   0.02620   0.02100   0.0099  0.0083  1.0000  -8.7686   0.0000   0.0000   0.0000   0.2310
  10.800   1.1377   0.02722   0.02209   0.0101  0.0079  1.0000  -8.8416   0.0000   0.0000   0.0000   0.2307
  10.900   1.1378   0.02891   0.02394   0.0105  0.0075  1.0000  -8.8270   0.0000   0.0000   0.0000   0.2302
  11.000   1.1433   0.02968   0.02479   0.0107  0.0074  1.0000  -8.9252   0.0000   0.0000   0.0000   0.2300
  11.100   1.1504   0.03018   0.02536   0.0108  0.0073  1.0000  -9.0576   0.0000   0.0000   0.0000   0.2298
  11.200   1.1564   0.03081   0.02607   0.0110  0.0071  1.0000  -9.1993   0.0000   0.0000   0.0000   0.2295
  11.300   1.1614   0.03158   0.02693   0.0112  0.0070  1.0000  -9.3271   0.0000   0.0000   0.0000   0.2293
  11.400   1.1651   0.03250   0.02797   0.0114  0.0069  1.0000  -9.4363   0.0000   0.0000   0.0000   0.2290
  11.500   1.1681   0.03349   0.02905   0.0115  0.0068  1.0000  -9.5339   0.0000   0.0000   0.0000   0.2288
  11.600   1.1703   0.03453   0.03019   0.0117  0.0068  1.0000  -9.6224   0.0000   0.0000   0.0000   0.2285
  11.700   1.1717   0.03563   0.03139   0.0118  0.0067  1.0000  -9.7009   0.0000   0.0000   0.0000   0.2283
  11.800   1.1721   0.03679   0.03265   0.0118  0.0066  1.0000  -9.7676   0.0000   0.0000   0.0000   0.2281
  11.900   1.1705   0.03797   0.03392   0.0120  0.0066  1.0000  -9.8141   0.0000   0.0000   0.0000   0.2278
  12.000   1.1676   0.03929   0.03533   0.0119  0.0065  1.0000  -9.8442   0.0000   0.0000   0.0000   0.2278
  12.100   1.1639   0.04086   0.03699   0.0111  0.0065  1.0000  -9.8580   0.0000   0.0000   0.0000   0.2282
  12.200   1.1599   0.04275   0.03897   0.0097  0.0065  1.0000  -9.8575   0.0000   0.0000   0.0000   0.2292
  12.300   1.1556   0.04497   0.04128   0.0077  0.0065  1.0000  -9.8448   0.0000   0.0000   0.0000   0.2307
  12.400   1.1511   0.04748   0.04388   0.0054  0.0065  1.0000  -9.8210   0.0000   0.0000   0.0000   0.2326
  12.500   1.1461   0.05023   0.04672   0.0028  0.0065  1.0000  -9.7853   0.0000   0.0000   0.0000   0.2346
  12.600   1.1406   0.05316   0.04973   0.0003  0.0065  1.0000  -9.7372   0.0000   0.0000   0.0000   0.2367
  12.700   1.1344   0.05623   0.05288  -0.0023  0.0065  1.0000  -9.6782   0.0000   0.0000   0.0000   0.2388
  12.800   1.1277   0.05942   0.05615  -0.0049  0.0065  1.0000  -9.6080   0.0000   0.0000   0.0000   0.2409
  12.900   1.1203   0.06271   0.05950  -0.0074  0.0065  1.0000  -9.5268   0.0000   0.0000   0.0000   0.2430
  13.000   1.1123   0.06603   0.06288  -0.0097  0.0066  1.0000  -9.4364   0.0000   0.0000   0.0000   0.2451
  13.100   1.1039   0.06942   0.06633  -0.0121  0.0066  1.0000  -9.3379   0.0000   0.0000   0.0000   0.2471
  13.200   1.0952   0.07287   0.06984  -0.0144  0.0066  1.0000  -9.2319   0.0000   0.0000   0.0000   0.2492
  13.300   1.0861   0.07638   0.07340  -0.0166  0.0067  1.0000  -9.1190   0.0000   0.0000   0.0000   0.2513
  13.400   1.0768   0.07993   0.07700  -0.0188  0.0067  1.0000  -9.0004   0.0000   0.0000   0.0000   0.2534
  13.500   1.0673   0.08346   0.08057  -0.0209  0.0068  1.0000  -8.8772   0.0000   0.0000   0.0000   0.2554
  13.600   1.0575   0.08706   0.08422  -0.0231  0.0068  1.0000  -8.7456   0.0000   0.0000   0.0000   0.2575
  13.700   1.0476   0.09072   0.08790  -0.0252  0.0069  1.0000  -8.6085   0.0000   0.0000   0.0000   0.2597
  13.800   1.0377   0.09443   0.09165  -0.0273  0.0069  1.0000  -8.4677   0.0000   0.0000   0.0000   0.2619
  13.900   1.0275   0.09828   0.09554  -0.0295  0.0070  1.0000  -8.3153   0.0000   0.0000   0.0000   0.2642
  14.000   1.0170   0.10220   0.09950  -0.0317  0.0070  1.0000  -8.1551   0.0000   0.0000   0.0000   0.2666
  14.100   1.0066   0.10615   0.10349  -0.0339  0.0071  1.0000  -7.9898   0.0000   0.0000   0.0000   0.2691
  14.200   0.9949   0.11044   0.10781  -0.0362  0.0071  1.0000  -7.7922   0.0000   0.0000   0.0000   0.2718
  14.300   0.9815   0.11520   0.11262  -0.0387  0.0072  1.0000  -7.5483   0.0000   0.0000   0.0000   0.2749
  14.400   0.9604   0.12190   0.11937  -0.0422  0.0074  1.0000  -7.1219   0.0000   0.0000   0.0000   0.2795
  14.500   0.8170   0.16639   0.16395  -0.0608  0.0120  1.0000  -3.3935   0.0000   0.0000   0.0000   0.3130
  14.600   0.8183   0.16835   0.16592  -0.0615  0.0121  1.0000  -3.3598   0.0000   0.0000   0.0000   0.3138
  14.700   0.8198   0.17040   0.16797  -0.0623  0.0123  1.0000  -3.3173   0.0000   0.0000   0.0000   0.3145


