xflr5 v6.61

 Calculated polar for: S8025 (8%)

 1 1 Reynolds number fixed          Mach number fixed         

 xtrf =   1.000 (top)        1.000 (bottom)
 Mach =   0.000     Re =     0.175 e 6     Ncrit =   9.000

  alpha     CL        CD       CDp       Cm    Top Xtr Bot Xtr   Cpmin    Chinge    XCp    
 ------- -------- --------- --------- -------- ------- ------- -------- --------- ---------
 -10.000  -0.6922   0.11444   0.11082   0.0274  1.0000  0.0483  -2.1665   0.0000   0.0000   0.0000   0.2843
  -9.900  -0.6890   0.11302   0.10940   0.0281  1.0000  0.0486  -2.1255   0.0000   0.0000   0.0000   0.2856
  -9.800  -0.6859   0.11168   0.10805   0.0285  1.0000  0.0489  -2.0921   0.0000   0.0000   0.0000   0.2864
  -9.700  -0.6833   0.11029   0.10667   0.0286  1.0000  0.0493  -2.0678   0.0000   0.0000   0.0000   0.2868
  -9.600  -0.6810   0.10887   0.10525   0.0285  1.0000  0.0496  -2.0490   0.0000   0.0000   0.0000   0.2869
  -9.500  -0.6792   0.10739   0.10378   0.0283  1.0000  0.0500  -2.0370   0.0000   0.0000   0.0000   0.2867
  -9.400  -0.6777   0.10585   0.10224   0.0278  1.0000  0.0504  -2.0304   0.0000   0.0000   0.0000   0.2862
  -9.300  -0.6766   0.10425   0.10066   0.0273  1.0000  0.0507  -2.0283   0.0000   0.0000   0.0000   0.2855
  -9.200  -0.6759   0.10259   0.09901   0.0266  1.0000  0.0511  -2.0308   0.0000   0.0000   0.0000   0.2847
  -9.100  -0.6755   0.10087   0.09730   0.0259  1.0000  0.0515  -2.0375   0.0000   0.0000   0.0000   0.2836
  -9.000  -0.6753   0.09908   0.09552   0.0250  1.0000  0.0519  -2.0479   0.0000   0.0000   0.0000   0.2823
  -8.900  -0.6755   0.09722   0.09368   0.0239  1.0000  0.0523  -2.0616   0.0000   0.0000   0.0000   0.2809
  -8.800  -0.6759   0.09531   0.09178   0.0228  1.0000  0.0527  -2.0787   0.0000   0.0000   0.0000   0.2793
  -8.700  -0.6766   0.09333   0.08981   0.0216  1.0000  0.0531  -2.0989   0.0000   0.0000   0.0000   0.2774
  -8.600  -0.6777   0.09128   0.08778   0.0202  1.0000  0.0535  -2.1224   0.0000   0.0000   0.0000   0.2754
  -7.700  -0.7308   0.05046   0.04603  -0.0109  1.0000  0.0278  -3.5914   0.0000   0.0000   0.0000   0.2303
  -7.600  -0.7287   0.04828   0.04382  -0.0111  1.0000  0.0269  -3.5909   0.0000   0.0000   0.0000   0.2299
  -7.400  -0.7276   0.04079   0.03532  -0.0113  1.0000  0.0211  -4.0708   0.0000   0.0000   0.0000   0.2295
  -7.300  -0.7236   0.03817   0.03262  -0.0113  1.0000  0.0205  -4.0917   0.0000   0.0000   0.0000   0.2294
  -7.200  -0.7188   0.03613   0.03042  -0.0113  1.0000  0.0201  -4.1050   0.0000   0.0000   0.0000   0.2295
  -7.100  -0.7131   0.03429   0.02839  -0.0111  1.0000  0.0197  -4.1154   0.0000   0.0000   0.0000   0.2296
  -7.000  -0.7067   0.03256   0.02646  -0.0109  1.0000  0.0193  -4.1251   0.0000   0.0000   0.0000   0.2298
  -6.900  -0.6997   0.03093   0.02462  -0.0106  1.0000  0.0190  -4.1342   0.0000   0.0000   0.0000   0.2301
  -6.800  -0.6921   0.02939   0.02286  -0.0103  1.0000  0.0186  -4.1415   0.0000   0.0000   0.0000   0.2304
  -6.700  -0.6841   0.02796   0.02121  -0.0099  1.0000  0.0183  -4.1449   0.0000   0.0000   0.0000   0.2308
  -6.600  -0.6756   0.02664   0.01968  -0.0096  1.0000  0.0181  -4.1423   0.0000   0.0000   0.0000   0.2312
  -6.500  -0.6666   0.02544   0.01829  -0.0092  1.0000  0.0179  -4.1324   0.0000   0.0000   0.0000   0.2316
  -6.400  -0.6574   0.02435   0.01703  -0.0088  1.0000  0.0178  -4.1143   0.0000   0.0000   0.0000   0.2320
  -6.300  -0.6480   0.02336   0.01590  -0.0084  1.0000  0.0178  -4.0884   0.0000   0.0000   0.0000   0.2325
  -6.200  -0.6384   0.02246   0.01488  -0.0081  1.0000  0.0179  -4.0558   0.0000   0.0000   0.0000   0.2329
  -6.100  -0.6288   0.02163   0.01396  -0.0077  1.0000  0.0180  -4.0178   0.0000   0.0000   0.0000   0.2334
  -6.000  -0.6191   0.02086   0.01311  -0.0073  1.0000  0.0182  -3.9757   0.0000   0.0000   0.0000   0.2338
  -5.900  -0.6094   0.02015   0.01233  -0.0070  1.0000  0.0185  -3.9312   0.0000   0.0000   0.0000   0.2343
  -5.800  -0.5997   0.01948   0.01160  -0.0066  1.0000  0.0189  -3.8852   0.0000   0.0000   0.0000   0.2347
  -5.700  -0.5900   0.01886   0.01092  -0.0063  1.0000  0.0194  -3.8385   0.0000   0.0000   0.0000   0.2352
  -5.600  -0.5803   0.01829   0.01029  -0.0059  1.0000  0.0200  -3.7913   0.0000   0.0000   0.0000   0.2357
  -5.500  -0.5704   0.01779   0.00972  -0.0056  1.0000  0.0207  -3.7424   0.0000   0.0000   0.0000   0.2362
  -5.400  -0.5614   0.01702   0.00892  -0.0052  1.0000  0.0218  -3.7146   0.0000   0.0000   0.0000   0.2368
  -5.300  -0.5522   0.01640   0.00830  -0.0049  1.0000  0.0236  -3.6617   0.0000   0.0000   0.0000   0.2372
  -5.200  -0.5422   0.01598   0.00786  -0.0046  1.0000  0.0260  -3.6052   0.0000   0.0000   0.0000   0.2376
  -5.100  -0.5323   0.01547   0.00730  -0.0043  1.0000  0.0296  -3.5753   0.0000   0.0000   0.0000   0.2382
  -5.000  -0.5224   0.01501   0.00682  -0.0040  1.0000  0.0371  -3.5173   0.0000   0.0000   0.0000   0.2386
  -4.900  -0.5139   0.01404   0.00621  -0.0038  1.0000  0.0751  -3.5350   0.0000   0.0000   0.0000   0.2391
  -4.800  -0.5038   0.01372   0.00600  -0.0036  1.0000  0.1009  -3.4459   0.0000   0.0000   0.0000   0.2392
  -4.700  -0.4936   0.01352   0.00589  -0.0036  1.0000  0.1191  -3.3272   0.0000   0.0000   0.0000   0.2392
  -4.600  -0.4833   0.01335   0.00579  -0.0035  1.0000  0.1358  -3.2047   0.0000   0.0000   0.0000   0.2393
  -4.500  -0.4729   0.01317   0.00563  -0.0034  1.0000  0.1506  -3.0856   0.0000   0.0000   0.0000   0.2394
  -4.400  -0.4627   0.01293   0.00544  -0.0033  1.0000  0.1651  -2.9688   0.0000   0.0000   0.0000   0.2397
  -4.300  -0.4528   0.01264   0.00524  -0.0031  1.0000  0.1800  -2.8544   0.0000   0.0000   0.0000   0.2399
  -4.200  -0.4427   0.01236   0.00503  -0.0029  1.0000  0.1958  -2.7405   0.0000   0.0000   0.0000   0.2402
  -4.100  -0.4326   0.01211   0.00484  -0.0027  1.0000  0.2131  -2.6265   0.0000   0.0000   0.0000   0.2405
  -4.000  -0.4225   0.01186   0.00465  -0.0026  1.0000  0.2318  -2.5128   0.0000   0.0000   0.0000   0.2409
  -3.900  -0.4124   0.01163   0.00449  -0.0024  1.0000  0.2517  -2.3998   0.0000   0.0000   0.0000   0.2412
  -3.700  -0.3923   0.01115   0.00419  -0.0020  1.0000  0.2944  -2.1773   0.0000   0.0000   0.0000   0.2420
  -3.600  -0.3823   0.01092   0.00405  -0.0018  1.0000  0.3175  -2.0679   0.0000   0.0000   0.0000   0.2424
  -3.500  -0.3724   0.01071   0.00394  -0.0016  1.0000  0.3421  -1.9679   0.0000   0.0000   0.0000   0.2429
  -3.400  -0.3624   0.01050   0.00383  -0.0014  1.0000  0.3674  -1.8814   0.0000   0.0000   0.0000   0.2435
  -3.300  -0.3525   0.01030   0.00368  -0.0011  1.0000  0.3934  -1.7919   0.0000   0.0000   0.0000   0.2441
  -3.200  -0.3427   0.01010   0.00359  -0.0009  1.0000  0.4195  -1.7095   0.0000   0.0000   0.0000   0.2448
  -3.100  -0.3328   0.00992   0.00351  -0.0006  1.0000  0.4462  -1.6283   0.0000   0.0000   0.0000   0.2457
  -3.000  -0.3231   0.00974   0.00344  -0.0002  1.0000  0.4734  -1.5485   0.0000   0.0000   0.0000   0.2467
  -2.900  -0.3135   0.00956   0.00339   0.0001  1.0000  0.5015  -1.4699   0.0000   0.0000   0.0000   0.2478
  -2.800  -0.3039   0.00940   0.00334   0.0005  1.0000  0.5300  -1.3926   0.0000   0.0000   0.0000   0.2492
  -2.700  -0.2943   0.00925   0.00329   0.0009  1.0000  0.5579  -1.3165   0.0000   0.0000   0.0000   0.2507
  -2.600  -0.2848   0.00910   0.00325   0.0014  1.0000  0.5851  -1.2417   0.0000   0.0000   0.0000   0.2524
  -2.500  -0.2753   0.00897   0.00322   0.0019  1.0000  0.6112  -1.1682   0.0000   0.0000   0.0000   0.2544
  -2.400  -0.2658   0.00884   0.00318   0.0023  1.0000  0.6359  -1.0959   0.0000   0.0000   0.0000   0.2565
  -2.300  -0.2563   0.00873   0.00315   0.0028  1.0000  0.6594  -1.0248   0.0000   0.0000   0.0000   0.2588
  -2.200  -0.2468   0.00862   0.00311   0.0034  1.0000  0.6822  -0.9552   0.0000   0.0000   0.0000   0.2613
  -2.000  -0.2282   0.00841   0.00306   0.0045  1.0000  0.7267  -0.8216   0.0000   0.0000   0.0000   0.2677
  -1.900  -0.2191   0.00831   0.00304   0.0052  1.0000  0.7482  -0.7931   0.0000   0.0000   0.0000   0.2715
  -1.800  -0.2101   0.00822   0.00303   0.0059  1.0000  0.7702  -0.7682   0.0000   0.0000   0.0000   0.2759
  -1.700  -0.2012   0.00813   0.00297   0.0066  1.0000  0.7925  -0.7436   0.0000   0.0000   0.0000   0.2809
  -1.600  -0.1924   0.00805   0.00296   0.0074  1.0000  0.8147  -0.7191   0.0000   0.0000   0.0000   0.2864
  -1.500  -0.1834   0.00798   0.00295   0.0082  1.0000  0.8372  -0.6946   0.0000   0.0000   0.0000   0.2925
  -1.400  -0.1739   0.00793   0.00295   0.0089  1.0000  0.8598  -0.6696   0.0000   0.0000   0.0000   0.2989
  -1.300  -0.1628   0.00788   0.00295   0.0092  1.0000  0.8827  -0.6429   0.0000   0.0000   0.0000   0.3048
  -1.200  -0.1495   0.00785   0.00295   0.0091  1.0000  0.9060  -0.6135   0.0000   0.0000   0.0000   0.3092
  -1.100  -0.1329   0.00784   0.00294   0.0083  1.0000  0.9281  -0.5805   0.0000   0.0000   0.0000   0.3106
  -1.000  -0.1128   0.00783   0.00293   0.0067  1.0000  0.9477  -0.5468   0.0000   0.0000   0.0000   0.3072
  -0.900  -0.0914   0.00782   0.00291   0.0047  1.0000  0.9645  -0.5131   0.0000   0.0000   0.0000   0.2993
  -0.800  -0.0692   0.00781   0.00288   0.0025  1.0000  0.9784  -0.4789   0.0000   0.0000   0.0000   0.2833
  -0.700  -0.0465   0.00779   0.00284   0.0001  1.0000  0.9905  -0.4447   0.0000   0.0000   0.0000   0.2489
  -0.600  -0.0242   0.00777   0.00280  -0.0023  1.0000  1.0000  -0.4124   0.0000   0.0000   0.0000   0.1502
  -0.500  -0.0164   0.00774   0.00276  -0.0019  1.0000  1.0000  -0.3983   0.0000   0.0000   0.0000   0.1277
  -0.400  -0.0086   0.00772   0.00274  -0.0015  1.0000  1.0000  -0.3843   0.0000   0.0000   0.0000   0.0675
  -0.300  -0.0009   0.00770   0.00271  -0.0011  1.0000  1.0000  -0.3894   0.0000   0.0000   0.0000  -1.0144
  -0.200   0.0067   0.00770   0.00271  -0.0006  1.0000  1.0000  -0.4008   0.0000   0.0000   0.0000   0.3451
  -0.100   0.0246   0.00772   0.00272  -0.0022  0.9880  1.0000  -0.4199   0.0000   0.0000   0.0000   0.3380
   0.000   0.0486   0.00774   0.00273  -0.0048  0.9637  1.0000  -0.4438   0.0000   0.0000   0.0000   0.3485
   0.100   0.0716   0.00776   0.00272  -0.0072  0.9361  1.0000  -0.4679   0.0000   0.0000   0.0000   0.3490
   0.200   0.0912   0.00778   0.00269  -0.0087  0.9055  1.0000  -0.4910   0.0000   0.0000   0.0000   0.3440
   0.300   0.1058   0.00782   0.00266  -0.0091  0.8744  1.0000  -0.5103   0.0000   0.0000   0.0000   0.3345
   0.400   0.1169   0.00788   0.00263  -0.0088  0.8451  1.0000  -0.5267   0.0000   0.0000   0.0000   0.3234
   0.600   0.1351   0.00804   0.00260  -0.0074  0.7950  1.0000  -0.5567   0.0000   0.0000   0.0000   0.3030
   0.700   0.1440   0.00814   0.00258  -0.0067  0.7726  1.0000  -0.5714   0.0000   0.0000   0.0000   0.2948
   0.800   0.1529   0.00824   0.00258  -0.0060  0.7518  1.0000  -0.5863   0.0000   0.0000   0.0000   0.2878
   0.900   0.1621   0.00833   0.00258  -0.0055  0.7316  1.0000  -0.6014   0.0000   0.0000   0.0000   0.2821
   1.000   0.1715   0.00843   0.00258  -0.0050  0.7125  1.0000  -0.6182   0.0000   0.0000   0.0000   0.2773
   1.100   0.1809   0.00853   0.00259  -0.0045  0.6944  1.0000  -0.6352   0.0000   0.0000   0.0000   0.2731
   1.200   0.1903   0.00863   0.00260  -0.0041  0.6771  1.0000  -0.6524   0.0000   0.0000   0.0000   0.2693
   1.300   0.2000   0.00873   0.00263  -0.0037  0.6590  1.0000  -0.6707   0.0000   0.0000   0.0000   0.2662
   1.400   0.2097   0.00882   0.00264  -0.0033  0.6416  1.0000  -0.6902   0.0000   0.0000   0.0000   0.2636
   1.500   0.2194   0.00893   0.00265  -0.0029  0.6253  1.0000  -0.7119   0.0000   0.0000   0.0000   0.2610
   1.600   0.2293   0.00903   0.00267  -0.0025  0.6081  1.0000  -0.7340   0.0000   0.0000   0.0000   0.2589
   1.700   0.2392   0.00912   0.00269  -0.0022  0.5919  1.0000  -0.7563   0.0000   0.0000   0.0000   0.2571
   1.900   0.2592   0.00933   0.00274  -0.0016  0.5604  1.0000  -0.8013   0.0000   0.0000   0.0000   0.2540
   2.000   0.2691   0.00944   0.00277  -0.0013  0.5459  1.0000  -0.8255   0.0000   0.0000   0.0000   0.2526
   2.100   0.2793   0.00954   0.00280  -0.0011  0.5307  1.0000  -0.8513   0.0000   0.0000   0.0000   0.2514
   2.200   0.2894   0.00965   0.00284  -0.0008  0.5169  1.0000  -0.8772   0.0000   0.0000   0.0000   0.2504
   2.300   0.2996   0.00975   0.00288  -0.0006  0.5028  1.0000  -0.9033   0.0000   0.0000   0.0000   0.2495
   2.400   0.3098   0.00986   0.00293  -0.0004  0.4896  1.0000  -0.9296   0.0000   0.0000   0.0000   0.2486
   2.500   0.3200   0.00997   0.00298  -0.0001  0.4764  1.0000  -0.9561   0.0000   0.0000   0.0000   0.2478
   2.600   0.3303   0.01008   0.00304   0.0001  0.4638  1.0000  -0.9828   0.0000   0.0000   0.0000   0.2472
   2.700   0.3406   0.01020   0.00309   0.0003  0.4508  1.0000  -1.0096   0.0000   0.0000   0.0000   0.2465
   2.800   0.3509   0.01032   0.00315   0.0005  0.4389  1.0000  -1.0366   0.0000   0.0000   0.0000   0.2459
   2.900   0.3613   0.01042   0.00322   0.0007  0.4265  1.0000  -1.0638   0.0000   0.0000   0.0000   0.2454
   3.000   0.3715   0.01056   0.00335   0.0009  0.4153  1.0000  -1.0910   0.0000   0.0000   0.0000   0.2449
   3.100   0.3820   0.01066   0.00344   0.0010  0.4034  1.0000  -1.1206   0.0000   0.0000   0.0000   0.2445
   3.200   0.3921   0.01083   0.00350   0.0012  0.3928  1.0000  -1.1517   0.0000   0.0000   0.0000   0.2439
   3.300   0.4028   0.01091   0.00360   0.0014  0.3811  1.0000  -1.1840   0.0000   0.0000   0.0000   0.2437
   3.400   0.4130   0.01106   0.00367   0.0016  0.3704  1.0000  -1.2205   0.0000   0.0000   0.0000   0.2432
   3.500   0.4235   0.01117   0.00377   0.0017  0.3593  1.0000  -1.2634   0.0000   0.0000   0.0000   0.2429
   3.600   0.4338   0.01130   0.00385   0.0019  0.3486  1.0000  -1.3065   0.0000   0.0000   0.0000   0.2426
   3.700   0.4442   0.01144   0.00395   0.0020  0.3384  1.0000  -1.3497   0.0000   0.0000   0.0000   0.2423
   3.800   0.4547   0.01155   0.00405   0.0022  0.3276  1.0000  -1.3938   0.0000   0.0000   0.0000   0.2420
   3.900   0.4648   0.01174   0.00415   0.0023  0.3180  1.0000  -1.4375   0.0000   0.0000   0.0000   0.2417
   4.000   0.4756   0.01182   0.00426   0.0025  0.3075  1.0000  -1.4825   0.0000   0.0000   0.0000   0.2415
   4.100   0.4858   0.01200   0.00436   0.0026  0.2981  1.0000  -1.5272   0.0000   0.0000   0.0000   0.2412
   4.200   0.4963   0.01213   0.00449   0.0028  0.2886  1.0000  -1.5799   0.0000   0.0000   0.0000   0.2410
   4.300   0.5067   0.01226   0.00460   0.0029  0.2791  1.0000  -1.6336   0.0000   0.0000   0.0000   0.2407
   4.400   0.5169   0.01246   0.00473   0.0030  0.2704  1.0000  -1.6868   0.0000   0.0000   0.0000   0.2405
   4.500   0.5276   0.01256   0.00487   0.0032  0.2612  1.0000  -1.7415   0.0000   0.0000   0.0000   0.2403
   4.600   0.5378   0.01276   0.00504   0.0033  0.2526  1.0000  -1.7965   0.0000   0.0000   0.0000   0.2401
   4.700   0.5483   0.01291   0.00521   0.0034  0.2439  1.0000  -1.8514   0.0000   0.0000   0.0000   0.2399
   4.800   0.5587   0.01304   0.00534   0.0036  0.2352  1.0000  -1.9071   0.0000   0.0000   0.0000   0.2397
   4.900   0.5688   0.01330   0.00551   0.0037  0.2273  1.0000  -1.9618   0.0000   0.0000   0.0000   0.2395
   5.000   0.5795   0.01341   0.00568   0.0039  0.2191  1.0000  -2.0179   0.0000   0.0000   0.0000   0.2393
   5.100   0.5897   0.01360   0.00583   0.0040  0.2114  1.0000  -2.0742   0.0000   0.0000   0.0000   0.2391
   5.200   0.6000   0.01382   0.00604   0.0041  0.2037  1.0000  -2.1297   0.0000   0.0000   0.0000   0.2389
   5.300   0.6105   0.01396   0.00619   0.0043  0.1956  1.0000  -2.1869   0.0000   0.0000   0.0000   0.2387
   5.400   0.6202   0.01428   0.00640   0.0044  0.1880  1.0000  -2.2426   0.0000   0.0000   0.0000   0.2385
   5.500   0.6310   0.01438   0.00659   0.0045  0.1802  1.0000  -2.3002   0.0000   0.0000   0.0000   0.2384
   5.600   0.6412   0.01457   0.00675   0.0047  0.1727  1.0000  -2.3581   0.0000   0.0000   0.0000   0.2382
   5.700   0.6512   0.01485   0.00700   0.0048  0.1655  1.0000  -2.4139   0.0000   0.0000   0.0000   0.2380
   5.800   0.6617   0.01500   0.00718   0.0049  0.1579  1.0000  -2.4721   0.0000   0.0000   0.0000   0.2378
   5.900   0.6712   0.01536   0.00744   0.0051  0.1508  1.0000  -2.5688   0.0000   0.0000   0.0000   0.2376
   6.000   0.6819   0.01548   0.00765   0.0052  0.1439  1.0000  -2.6788   0.0000   0.0000   0.0000   0.2375
   6.100   0.6921   0.01568   0.00783   0.0053  0.1373  1.0000  -2.7903   0.0000   0.0000   0.0000   0.2373
   6.200   0.7019   0.01603   0.00819   0.0055  0.1308  1.0000  -2.9051   0.0000   0.0000   0.0000   0.2371
   6.300   0.7123   0.01619   0.00841   0.0056  0.1243  1.0000  -3.0209   0.0000   0.0000   0.0000   0.2370
   6.400   0.7219   0.01655   0.00869   0.0058  0.1185  1.0000  -3.1331   0.0000   0.0000   0.0000   0.2368
   6.500   0.7321   0.01686   0.00906   0.0059  0.1131  1.0000  -3.2432   0.0000   0.0000   0.0000   0.2365
   6.600   0.7422   0.01709   0.00932   0.0061  0.1076  1.0000  -3.3588   0.0000   0.0000   0.0000   0.2364
   6.700   0.7513   0.01761   0.00974   0.0063  0.1023  1.0000  -3.4682   0.0000   0.0000   0.0000   0.2361
   6.800   0.7617   0.01782   0.01005   0.0064  0.0972  1.0000  -3.5832   0.0000   0.0000   0.0000   0.2359
   6.900   0.7718   0.01804   0.01029   0.0066  0.0921  1.0000  -3.7028   0.0000   0.0000   0.0000   0.2358
   7.000   0.7806   0.01865   0.01079   0.0068  0.0875  1.0000  -3.8116   0.0000   0.0000   0.0000   0.2355
   7.100   0.7910   0.01887   0.01115   0.0069  0.0833  1.0000  -3.9273   0.0000   0.0000   0.0000   0.2353
   7.200   0.8009   0.01920   0.01149   0.0071  0.0795  1.0000  -4.0435   0.0000   0.0000   0.0000   0.2351
   7.300   0.8101   0.01967   0.01192   0.0073  0.0762  1.0000  -4.1585   0.0000   0.0000   0.0000   0.2349
   7.400   0.8192   0.02037   0.01263   0.0076  0.0733  1.0000  -4.2599   0.0000   0.0000   0.0000   0.2346
   7.500   0.8292   0.02077   0.01314   0.0078  0.0706  1.0000  -4.3700   0.0000   0.0000   0.0000   0.2343
   7.600   0.8389   0.02120   0.01362   0.0080  0.0680  1.0000  -4.4830   0.0000   0.0000   0.0000   0.2340
   7.700   0.8484   0.02164   0.01406   0.0082  0.0658  1.0000  -4.5998   0.0000   0.0000   0.0000   0.2338
   7.800   0.8574   0.02231   0.01469   0.0084  0.0638  1.0000  -4.7112   0.0000   0.0000   0.0000   0.2336
   7.900   0.8660   0.02328   0.01575   0.0087  0.0619  1.0000  -4.8012   0.0000   0.0000   0.0000   0.2333
   8.000   0.8758   0.02366   0.01627   0.0089  0.0601  1.0000  -4.9117   0.0000   0.0000   0.0000   0.2330
   8.100   0.8853   0.02408   0.01679   0.0092  0.0579  1.0000  -5.0259   0.0000   0.0000   0.0000   0.2328
   8.200   0.8947   0.02447   0.01723   0.0093  0.0559  1.0000  -5.1466   0.0000   0.0000   0.0000   0.2326
   8.300   0.9040   0.02493   0.01770   0.0095  0.0543  1.0000  -5.2679   0.0000   0.0000   0.0000   0.2324
   8.400   0.9128   0.02562   0.01839   0.0097  0.0530  1.0000  -5.3812   0.0000   0.0000   0.0000   0.2322
   8.500   0.9203   0.02703   0.01983   0.0099  0.0516  1.0000  -5.4628   0.0000   0.0000   0.0000   0.2320
   8.600   0.9288   0.02791   0.02088   0.0102  0.0508  1.0000  -5.5494   0.0000   0.0000   0.0000   0.2317
   8.700   0.9374   0.02861   0.02176   0.0105  0.0498  1.0000  -5.6399   0.0000   0.0000   0.0000   0.2313
   8.800   0.9457   0.02945   0.02277   0.0108  0.0488  1.0000  -5.7231   0.0000   0.0000   0.0000   0.2310
   8.900   0.9538   0.03022   0.02370   0.0110  0.0475  1.0000  -5.8106   0.0000   0.0000   0.0000   0.2308
   9.000   0.9622   0.03073   0.02430   0.0112  0.0459  1.0000  -5.9192   0.0000   0.0000   0.0000   0.2305
   9.100   0.9709   0.03097   0.02453   0.0113  0.0441  1.0000  -6.0542   0.0000   0.0000   0.0000   0.2304
   9.200   0.9790   0.03153   0.02500   0.0114  0.0424  1.0000  -6.1886   0.0000   0.0000   0.0000   0.2303
   9.300   0.9834   0.03345   0.02707   0.0116  0.0410  1.0000  -6.2227   0.0000   0.0000   0.0000   0.2301
   9.400   0.9903   0.03406   0.02794   0.0119  0.0399  1.0000  -6.2887   0.0000   0.0000   0.0000   0.2298
   9.500   0.9972   0.03468   0.02876   0.0121  0.0381  1.0000  -6.3632   0.0000   0.0000   0.0000   0.2295
   9.600   1.0058   0.03462   0.02872   0.0122  0.0358  1.0000  -6.5047   0.0000   0.0000   0.0000   0.2294
   9.700   1.0154   0.03425   0.02817   0.0122  0.0337  1.0000  -6.7002   0.0000   0.0000   0.0000   0.2294
   9.800   1.0184   0.03596   0.02995   0.0123  0.0321  1.0000  -6.7421   0.0000   0.0000   0.0000   0.2292
   9.900   1.0239   0.03657   0.03088   0.0125  0.0305  1.0000  -6.7865   0.0000   0.0000   0.0000   0.2289
  10.000   1.0286   0.03758   0.03207   0.0128  0.0289  1.0000  -6.8121   0.0000   0.0000   0.0000   0.2286
  10.100   1.0343   0.03822   0.03279   0.0129  0.0273  1.0000  -6.8766   0.0000   0.0000   0.0000   0.2284
  10.200   1.0410   0.03859   0.03311   0.0130  0.0260  1.0000  -6.9820   0.0000   0.0000   0.0000   0.2282
  10.300   1.0431   0.04019   0.03472   0.0131  0.0250  1.0000  -7.0081   0.0000   0.0000   0.0000   0.2281
  10.400   1.0390   0.04285   0.03761   0.0132  0.0244  1.0000  -6.9193   0.0000   0.0000   0.0000   0.2279
  10.500   1.0384   0.04430   0.03932   0.0133  0.0239  1.0000  -6.8814   0.0000   0.0000   0.0000   0.2277
  10.600   1.0359   0.04608   0.04132   0.0132  0.0235  1.0000  -6.8306   0.0000   0.0000   0.0000   0.2276
  10.700   1.0320   0.04796   0.04340   0.0130  0.0232  1.0000  -6.7784   0.0000   0.0000   0.0000   0.2277
  10.800   1.0269   0.04989   0.04549   0.0127  0.0230  1.0000  -6.7271   0.0000   0.0000   0.0000   0.2278
  10.900   1.0202   0.05169   0.04742   0.0124  0.0229  1.0000  -6.6800   0.0000   0.0000   0.0000   0.2279
  11.000   1.0130   0.05361   0.04945   0.0116  0.0229  1.0000  -6.6331   0.0000   0.0000   0.0000   0.2285
  11.100   1.0056   0.05577   0.05171   0.0100  0.0229  1.0000  -6.5839   0.0000   0.0000   0.0000   0.2298
  11.200   0.9981   0.05821   0.05424   0.0079  0.0230  1.0000  -6.5310   0.0000   0.0000   0.0000   0.2318
  11.300   0.9907   0.06091   0.05702   0.0054  0.0231  1.0000  -6.4741   0.0000   0.0000   0.0000   0.2341
  11.400   0.9832   0.06385   0.06004   0.0026  0.0233  1.0000  -6.4131   0.0000   0.0000   0.0000   0.2368
  11.500   0.9757   0.06699   0.06325  -0.0003  0.0234  1.0000  -6.3481   0.0000   0.0000   0.0000   0.2396
  11.600   0.9680   0.07024   0.06655  -0.0032  0.0236  1.0000  -6.2801   0.0000   0.0000   0.0000   0.2425
  11.700   0.9602   0.07359   0.06994  -0.0060  0.0238  1.0000  -6.2084   0.0000   0.0000   0.0000   0.2453
  11.800   0.9523   0.07702   0.07341  -0.0087  0.0241  1.0000  -6.1325   0.0000   0.0000   0.0000   0.2481
  11.900   0.9442   0.08051   0.07693  -0.0113  0.0243  1.0000  -6.0513   0.0000   0.0000   0.0000   0.2508
  12.000   0.9359   0.08404   0.08047  -0.0137  0.0245  1.0000  -5.9641   0.0000   0.0000   0.0000   0.2534
  12.100   0.7775   0.14069   0.13705  -0.0410  0.0740  1.0000  -2.8077   0.0000   0.0000   0.0000   0.2947
  12.200   0.7711   0.14327   0.13960  -0.0440  0.0736  1.0000  -2.6996   0.0000   0.0000   0.0000   0.2990
  12.300   0.7632   0.14593   0.14223  -0.0475  0.0723  1.0000  -2.5725   0.0000   0.0000   0.0000   0.3041
  12.400   0.7599   0.14808   0.14436  -0.0494  0.0708  1.0000  -2.5093   0.0000   0.0000   0.0000   0.3069
  12.500   0.7594   0.14992   0.14620  -0.0505  0.0692  1.0000  -2.4820   0.0000   0.0000   0.0000   0.3083
  12.600   0.7605   0.15156   0.14783  -0.0511  0.0678  1.0000  -2.4737   0.0000   0.0000   0.0000   0.3090
  12.700   0.7631   0.15297   0.14925  -0.0514  0.0664  1.0000  -2.4836   0.0000   0.0000   0.0000   0.3090
  12.800   0.7689   0.15404   0.15034  -0.0508  0.0649  1.0000  -2.5275   0.0000   0.0000   0.0000   0.3076
  12.900   0.7816   0.15514   0.15147  -0.0466  0.0621  1.0000  -2.6829   0.0000   0.0000   0.0000   0.3008
  13.000   0.7784   0.15750   0.15382  -0.0488  0.0619  1.0000  -2.5988   0.0000   0.0000   0.0000   0.3039
  13.100   0.7746   0.15986   0.15615  -0.0512  0.0615  1.0000  -2.5091   0.0000   0.0000   0.0000   0.3073
  13.200   0.7704   0.16204   0.15831  -0.0536  0.0608  1.0000  -2.4220   0.0000   0.0000   0.0000   0.3108
  13.300   0.7670   0.16403   0.16028  -0.0557  0.0595  1.0000  -2.3466   0.0000   0.0000   0.0000   0.3138
  13.400   0.7674   0.16545   0.16171  -0.0567  0.0563  1.0000  -2.3250   0.0000   0.0000   0.0000   0.3150
  13.600   0.7895   0.16733   0.16367  -0.0508  0.0512  1.0000  -2.5532   0.0000   0.0000   0.0000   0.3050
  13.700   0.7885   0.16962   0.16595  -0.0523  0.0512  1.0000  -2.4885   0.0000   0.0000   0.0000   0.3069
  13.800   0.7873   0.17184   0.16813  -0.0538  0.0511  1.0000  -2.4219   0.0000   0.0000   0.0000   0.3089
  13.900   0.7858   0.17396   0.17023  -0.0556  0.0509  1.0000  -2.3514   0.0000   0.0000   0.0000   0.3113
  14.000   0.7829   0.17597   0.17222  -0.0577  0.0506  1.0000  -2.2691   0.0000   0.0000   0.0000   0.3142
  14.100   0.7789   0.17779   0.17403  -0.0601  0.0500  1.0000  -2.1807   0.0000   0.0000   0.0000   0.3177
  14.200   0.7772   0.17973   0.17594  -0.0621  0.0487  1.0000  -2.1091   0.0000   0.0000   0.0000   0.3203
  14.300   0.7779   0.18156   0.17777  -0.0632  0.0475  1.0000  -2.0698   0.0000   0.0000   0.0000   0.3217
  14.400   0.7794   0.18327   0.17948  -0.0640  0.0465  1.0000  -2.0459   0.0000   0.0000   0.0000   0.3225
  14.500   0.7814   0.18489   0.18110  -0.0647  0.0455  1.0000  -2.0316   0.0000   0.0000   0.0000   0.3230
  14.600   0.7838   0.18642   0.18263  -0.0652  0.0447  1.0000  -2.0257   0.0000   0.0000   0.0000   0.3233
  14.700   0.7866   0.18789   0.18410  -0.0656  0.0440  1.0000  -2.0277   0.0000   0.0000   0.0000   0.3234
  14.800   0.7898   0.18930   0.18554  -0.0658  0.0434  1.0000  -2.0390   0.0000   0.0000   0.0000   0.3233
  14.900   0.7937   0.19068   0.18693  -0.0658  0.0429  1.0000  -2.0614   0.0000   0.0000   0.0000   0.3227
  15.000   0.7987   0.19214   0.18840  -0.0654  0.0424  1.0000  -2.1015   0.0000   0.0000   0.0000   0.3216


