xflr5 v6.61

 Calculated polar for: S8025 (8%)

 1 1 Reynolds number fixed          Mach number fixed         

 xtrf =   1.000 (top)        1.000 (bottom)
 Mach =   0.000     Re =     0.425 e 6     Ncrit =   9.000

  alpha     CL        CD       CDp       Cm    Top Xtr Bot Xtr   Cpmin    Chinge    XCp    
 ------- -------- --------- --------- -------- ------- ------- -------- --------- ---------
 -10.000  -0.6886   0.10893   0.10654   0.0310  1.0000  0.0208  -2.4388   0.0000   0.0000   0.0000   0.2893
  -9.900  -0.6886   0.10670   0.10431   0.0296  1.0000  0.0208  -2.4815   0.0000   0.0000   0.0000   0.2874
  -9.800  -0.6889   0.10440   0.10203   0.0283  1.0000  0.0209  -2.5245   0.0000   0.0000   0.0000   0.2855
  -9.700  -0.6894   0.10205   0.09968   0.0269  1.0000  0.0209  -2.5692   0.0000   0.0000   0.0000   0.2835
  -9.600  -0.6902   0.09962   0.09727   0.0255  1.0000  0.0210  -2.6165   0.0000   0.0000   0.0000   0.2814
  -9.500  -0.6912   0.09712   0.09477   0.0240  1.0000  0.0210  -2.6675   0.0000   0.0000   0.0000   0.2792
  -7.000  -0.7174   0.02403   0.01867  -0.0088  1.0000  0.0096  -4.8788   0.0000   0.0000   0.0000   0.2327
  -6.900  -0.7071   0.02376   0.01830  -0.0086  1.0000  0.0094  -4.7873   0.0000   0.0000   0.0000   0.2330
  -6.800  -0.6968   0.02353   0.01803  -0.0083  1.0000  0.0092  -4.6770   0.0000   0.0000   0.0000   0.2332
  -6.700  -0.6865   0.02329   0.01776  -0.0082  1.0000  0.0091  -4.5637   0.0000   0.0000   0.0000   0.2334
  -6.600  -0.6791   0.02149   0.01581  -0.0077  1.0000  0.0087  -4.5938   0.0000   0.0000   0.0000   0.2339
  -6.500  -0.6707   0.02024   0.01442  -0.0074  1.0000  0.0086  -4.5798   0.0000   0.0000   0.0000   0.2344
  -6.400  -0.6618   0.01925   0.01332  -0.0070  1.0000  0.0085  -4.5434   0.0000   0.0000   0.0000   0.2348
  -6.300  -0.6526   0.01841   0.01237  -0.0067  1.0000  0.0084  -4.4962   0.0000   0.0000   0.0000   0.2353
  -6.200  -0.6432   0.01765   0.01153  -0.0063  1.0000  0.0083  -4.4416   0.0000   0.0000   0.0000   0.2357
  -6.100  -0.6337   0.01697   0.01077  -0.0060  1.0000  0.0082  -4.3817   0.0000   0.0000   0.0000   0.2361
  -6.000  -0.6241   0.01634   0.01007  -0.0057  1.0000  0.0082  -4.3176   0.0000   0.0000   0.0000   0.2366
  -5.900  -0.6145   0.01577   0.00943  -0.0054  1.0000  0.0082  -4.2500   0.0000   0.0000   0.0000   0.2370
  -5.800  -0.6048   0.01523   0.00884  -0.0051  1.0000  0.0081  -4.1791   0.0000   0.0000   0.0000   0.2374
  -5.700  -0.5951   0.01474   0.00830  -0.0048  1.0000  0.0082  -4.1055   0.0000   0.0000   0.0000   0.2379
  -5.600  -0.5853   0.01428   0.00779  -0.0045  1.0000  0.0082  -4.0293   0.0000   0.0000   0.0000   0.2383
  -5.500  -0.5754   0.01385   0.00732  -0.0042  1.0000  0.0082  -3.9510   0.0000   0.0000   0.0000   0.2387
  -5.400  -0.5654   0.01345   0.00688  -0.0039  1.0000  0.0083  -3.8707   0.0000   0.0000   0.0000   0.2391
  -5.300  -0.5553   0.01309   0.00647  -0.0037  1.0000  0.0084  -3.7885   0.0000   0.0000   0.0000   0.2395
  -5.200  -0.5451   0.01275   0.00609  -0.0035  1.0000  0.0085  -3.7043   0.0000   0.0000   0.0000   0.2399
  -5.100  -0.5349   0.01244   0.00574  -0.0032  1.0000  0.0087  -3.6176   0.0000   0.0000   0.0000   0.2402
  -5.000  -0.5245   0.01218   0.00540  -0.0030  1.0000  0.0088  -3.5183   0.0000   0.0000   0.0000   0.2406
  -4.900  -0.5140   0.01193   0.00512  -0.0028  1.0000  0.0090  -3.4284   0.0000   0.0000   0.0000   0.2409
  -4.800  -0.5040   0.01146   0.00456  -0.0025  1.0000  0.0099  -3.3949   0.0000   0.0000   0.0000   0.2415
  -4.700  -0.4937   0.01115   0.00421  -0.0023  1.0000  0.0115  -3.3322   0.0000   0.0000   0.0000   0.2419
  -4.600  -0.4832   0.01089   0.00393  -0.0020  1.0000  0.0140  -3.2674   0.0000   0.0000   0.0000   0.2424
  -4.500  -0.4743   0.01015   0.00346  -0.0017  1.0000  0.0522  -3.2637   0.0000   0.0000   0.0000   0.2430
  -4.400  -0.4640   0.00992   0.00332  -0.0016  1.0000  0.0676  -3.1528   0.0000   0.0000   0.0000   0.2433
  -4.300  -0.4536   0.00975   0.00321  -0.0015  1.0000  0.0788  -3.0312   0.0000   0.0000   0.0000   0.2435
  -4.200  -0.4431   0.00958   0.00310  -0.0013  1.0000  0.0900  -2.9068   0.0000   0.0000   0.0000   0.2438
  -4.100  -0.4327   0.00942   0.00299  -0.0012  1.0000  0.1029  -2.7820   0.0000   0.0000   0.0000   0.2440
  -4.000  -0.4223   0.00925   0.00290  -0.0011  1.0000  0.1171  -2.6578   0.0000   0.0000   0.0000   0.2443
  -3.900  -0.4119   0.00908   0.00280  -0.0010  1.0000  0.1332  -2.5349   0.0000   0.0000   0.0000   0.2445
  -3.800  -0.4017   0.00888   0.00271  -0.0009  1.0000  0.1532  -2.4138   0.0000   0.0000   0.0000   0.2448
  -3.700  -0.3915   0.00868   0.00263  -0.0008  1.0000  0.1760  -2.2943   0.0000   0.0000   0.0000   0.2451
  -3.600  -0.3812   0.00848   0.00255  -0.0007  1.0000  0.1998  -2.1766   0.0000   0.0000   0.0000   0.2454
  -3.500  -0.3710   0.00830   0.00248  -0.0005  1.0000  0.2233  -2.0608   0.0000   0.0000   0.0000   0.2457
  -3.400  -0.3606   0.00813   0.00240  -0.0004  1.0000  0.2455  -1.9472   0.0000   0.0000   0.0000   0.2461
  -3.300  -0.3502   0.00798   0.00230  -0.0003  1.0000  0.2636  -1.8396   0.0000   0.0000   0.0000   0.2465
  -3.200  -0.3398   0.00785   0.00223  -0.0001  1.0000  0.2806  -1.7277   0.0000   0.0000   0.0000   0.2469
  -3.100  -0.3293   0.00773   0.00216   0.0000  1.0000  0.2975  -1.6227   0.0000   0.0000   0.0000   0.2474
  -3.000  -0.3189   0.00760   0.00210   0.0002  1.0000  0.3155  -1.5394   0.0000   0.0000   0.0000   0.2478
  -2.900  -0.3085   0.00747   0.00204   0.0003  1.0000  0.3334  -1.4575   0.0000   0.0000   0.0000   0.2484
  -2.800  -0.2981   0.00735   0.00199   0.0005  1.0000  0.3523  -1.3770   0.0000   0.0000   0.0000   0.2490
  -2.700  -0.2877   0.00723   0.00194   0.0006  1.0000  0.3726  -1.2979   0.0000   0.0000   0.0000   0.2496
  -2.600  -0.2773   0.00711   0.00189   0.0008  1.0000  0.3940  -1.2202   0.0000   0.0000   0.0000   0.2503
  -2.500  -0.2671   0.00698   0.00185   0.0010  1.0000  0.4157  -1.1443   0.0000   0.0000   0.0000   0.2511
  -2.400  -0.2568   0.00686   0.00181   0.0011  1.0000  0.4367  -1.0697   0.0000   0.0000   0.0000   0.2520
  -2.300  -0.2465   0.00675   0.00177   0.0013  1.0000  0.4568  -0.9964   0.0000   0.0000   0.0000   0.2530
  -2.200  -0.2362   0.00664   0.00174   0.0015  1.0000  0.4774  -0.9245   0.0000   0.0000   0.0000   0.2541
  -2.100  -0.2259   0.00653   0.00171   0.0017  1.0000  0.5006  -0.8542   0.0000   0.0000   0.0000   0.2553
  -1.900  -0.2057   0.00631   0.00168   0.0022  1.0000  0.5495  -0.7842   0.0000   0.0000   0.0000   0.2583
  -1.800  -0.1956   0.00620   0.00166   0.0024  1.0000  0.5731  -0.7580   0.0000   0.0000   0.0000   0.2602
  -1.700  -0.1856   0.00610   0.00162   0.0027  1.0000  0.5955  -0.7320   0.0000   0.0000   0.0000   0.2624
  -1.600  -0.1755   0.00601   0.00161   0.0030  1.0000  0.6153  -0.7061   0.0000   0.0000   0.0000   0.2647
  -1.500  -0.1653   0.00594   0.00160   0.0032  1.0000  0.6338  -0.6803   0.0000   0.0000   0.0000   0.2672
  -1.400  -0.1492   0.00587   0.00160   0.0022  0.9931  0.6540  -0.6474   0.0000   0.0000   0.0000   0.2624
  -1.300  -0.1324   0.00579   0.00160   0.0010  0.9815  0.6737  -0.6139   0.0000   0.0000   0.0000   0.2556
  -1.200  -0.1154   0.00572   0.00160  -0.0001  0.9670  0.6942  -0.5803   0.0000   0.0000   0.0000   0.2467
  -1.100  -0.0981   0.00565   0.00159  -0.0013  0.9493  0.7149  -0.5478   0.0000   0.0000   0.0000   0.2344
  -1.000  -0.0820   0.00559   0.00159  -0.0021  0.9274  0.7356  -0.5196   0.0000   0.0000   0.0000   0.2216
  -0.900  -0.0692   0.00556   0.00157  -0.0022  0.9019  0.7548  -0.4949   0.0000   0.0000   0.0000   0.2156
  -0.800  -0.0590   0.00555   0.00156  -0.0017  0.8762  0.7731  -0.4731   0.0000   0.0000   0.0000   0.2188
  -0.700  -0.0499   0.00555   0.00155  -0.0009  0.8507  0.7909  -0.4527   0.0000   0.0000   0.0000   0.2287
  -0.600  -0.0411   0.00556   0.00154  -0.0001  0.8265  0.8088  -0.4327   0.0000   0.0000   0.0000   0.2441
  -0.500  -0.0323   0.00558   0.00153   0.0006  0.8041  0.8270  -0.4138   0.0000   0.0000   0.0000   0.2674
  -0.400  -0.0234   0.00559   0.00153   0.0014  0.7834  0.8458  -0.3980   0.0000   0.0000   0.0000   0.3072
  -0.300  -0.0143   0.00561   0.00153   0.0021  0.7639  0.8645  -0.3824   0.0000   0.0000   0.0000   0.3950
  -0.200  -0.0050   0.00564   0.00152   0.0028  0.7457  0.8833  -0.3949   0.0000   0.0000   0.0000   0.8037
  -0.100   0.0050   0.00568   0.00152   0.0033  0.7282  0.9020  -0.4087   0.0000   0.0000   0.0000  -0.4161
   0.000   0.0163   0.00571   0.00152   0.0035  0.7112  0.9197  -0.4236   0.0000   0.0000   0.0000   0.0338
   0.100   0.0293   0.00575   0.00152   0.0033  0.6957  0.9354  -0.4397   0.0000   0.0000   0.0000   0.1346
   0.300   0.0589   0.00587   0.00150   0.0020  0.6632  0.9600  -0.4772   0.0000   0.0000   0.0000   0.2134
   0.400   0.0747   0.00593   0.00150   0.0011  0.6468  0.9703  -0.4972   0.0000   0.0000   0.0000   0.2327
   0.600   0.1076   0.00606   0.00147  -0.0010  0.6112  0.9882  -0.5387   0.0000   0.0000   0.0000   0.2573
   0.700   0.1246   0.00613   0.00146  -0.0022  0.5934  0.9953  -0.5602   0.0000   0.0000   0.0000   0.2660
   0.800   0.1402   0.00621   0.00145  -0.0032  0.5758  1.0000  -0.5806   0.0000   0.0000   0.0000   0.2709
   0.900   0.1506   0.00626   0.00144  -0.0030  0.5605  1.0000  -0.5967   0.0000   0.0000   0.0000   0.2682
   1.000   0.1608   0.00633   0.00144  -0.0028  0.5461  1.0000  -0.6130   0.0000   0.0000   0.0000   0.2656
   1.100   0.1711   0.00639   0.00144  -0.0027  0.5317  1.0000  -0.6309   0.0000   0.0000   0.0000   0.2635
   1.200   0.1814   0.00646   0.00144  -0.0025  0.5187  1.0000  -0.6489   0.0000   0.0000   0.0000   0.2615
   1.300   0.1918   0.00652   0.00146  -0.0023  0.5055  1.0000  -0.6670   0.0000   0.0000   0.0000   0.2598
   1.400   0.2021   0.00659   0.00146  -0.0021  0.4937  1.0000  -0.6869   0.0000   0.0000   0.0000   0.2583
   1.500   0.2125   0.00664   0.00147  -0.0020  0.4814  1.0000  -0.7096   0.0000   0.0000   0.0000   0.2570
   1.600   0.2228   0.00673   0.00149  -0.0018  0.4692  1.0000  -0.7323   0.0000   0.0000   0.0000   0.2557
   1.700   0.2333   0.00678   0.00150  -0.0016  0.4571  1.0000  -0.7553   0.0000   0.0000   0.0000   0.2546
   1.900   0.2542   0.00692   0.00154  -0.0013  0.4336  1.0000  -0.8027   0.0000   0.0000   0.0000   0.2527
   2.000   0.2646   0.00701   0.00156  -0.0011  0.4221  1.0000  -0.8288   0.0000   0.0000   0.0000   0.2518
   2.100   0.2751   0.00707   0.00159  -0.0010  0.4122  1.0000  -0.8553   0.0000   0.0000   0.0000   0.2511
   2.200   0.2857   0.00714   0.00161  -0.0008  0.4016  1.0000  -0.8820   0.0000   0.0000   0.0000   0.2504
   2.300   0.2961   0.00722   0.00164  -0.0007  0.3915  1.0000  -0.9087   0.0000   0.0000   0.0000   0.2497
   2.400   0.3068   0.00728   0.00167  -0.0005  0.3814  1.0000  -0.9359   0.0000   0.0000   0.0000   0.2492
   2.500   0.3172   0.00737   0.00171  -0.0004  0.3707  1.0000  -0.9630   0.0000   0.0000   0.0000   0.2486
   2.600   0.3278   0.00744   0.00174  -0.0003  0.3612  1.0000  -0.9905   0.0000   0.0000   0.0000   0.2481
   2.700   0.3384   0.00752   0.00178  -0.0001  0.3507  1.0000  -1.0181   0.0000   0.0000   0.0000   0.2477
   2.800   0.3489   0.00761   0.00182  -0.0000  0.3410  1.0000  -1.0458   0.0000   0.0000   0.0000   0.2472
   2.900   0.3596   0.00767   0.00186   0.0001  0.3313  1.0000  -1.0739   0.0000   0.0000   0.0000   0.2468
   3.000   0.3701   0.00778   0.00195   0.0003  0.3207  1.0000  -1.1018   0.0000   0.0000   0.0000   0.2464
   3.100   0.3808   0.00785   0.00200   0.0004  0.3118  1.0000  -1.1312   0.0000   0.0000   0.0000   0.2461
   3.200   0.3914   0.00793   0.00205   0.0005  0.3021  1.0000  -1.1635   0.0000   0.0000   0.0000   0.2458
   3.300   0.4020   0.00803   0.00210   0.0006  0.2933  1.0000  -1.1959   0.0000   0.0000   0.0000   0.2454
   3.400   0.4128   0.00810   0.00215   0.0007  0.2849  1.0000  -1.2357   0.0000   0.0000   0.0000   0.2452
   3.500   0.4233   0.00820   0.00221   0.0008  0.2759  1.0000  -1.2795   0.0000   0.0000   0.0000   0.2449
   3.600   0.4340   0.00828   0.00227   0.0009  0.2679  1.0000  -1.3239   0.0000   0.0000   0.0000   0.2446
   3.700   0.4447   0.00837   0.00233   0.0010  0.2593  1.0000  -1.3687   0.0000   0.0000   0.0000   0.2444
   3.800   0.4552   0.00849   0.00240   0.0012  0.2505  1.0000  -1.4134   0.0000   0.0000   0.0000   0.2441
   3.900   0.4660   0.00855   0.00246   0.0013  0.2435  1.0000  -1.4593   0.0000   0.0000   0.0000   0.2439
   4.000   0.4767   0.00865   0.00253   0.0014  0.2358  1.0000  -1.5066   0.0000   0.0000   0.0000   0.2437
   4.100   0.4873   0.00877   0.00261   0.0015  0.2280  1.0000  -1.5606   0.0000   0.0000   0.0000   0.2435
   4.200   0.4981   0.00884   0.00268   0.0016  0.2215  1.0000  -1.6159   0.0000   0.0000   0.0000   0.2433
   4.300   0.5087   0.00894   0.00276   0.0017  0.2140  1.0000  -1.6713   0.0000   0.0000   0.0000   0.2431
   4.400   0.5193   0.00907   0.00285   0.0018  0.2066  1.0000  -1.7269   0.0000   0.0000   0.0000   0.2429
   4.500   0.5301   0.00914   0.00296   0.0019  0.1999  1.0000  -1.7846   0.0000   0.0000   0.0000   0.2427
   4.600   0.5407   0.00927   0.00304   0.0020  0.1923  1.0000  -1.8416   0.0000   0.0000   0.0000   0.2425
   4.700   0.5513   0.00938   0.00314   0.0021  0.1853  1.0000  -1.8989   0.0000   0.0000   0.0000   0.2423
   4.800   0.5620   0.00948   0.00323   0.0022  0.1783  1.0000  -1.9571   0.0000   0.0000   0.0000   0.2422
   4.900   0.5725   0.00963   0.00333   0.0023  0.1707  1.0000  -2.0150   0.0000   0.0000   0.0000   0.2420
   5.000   0.5832   0.00972   0.00343   0.0024  0.1643  1.0000  -2.0741   0.0000   0.0000   0.0000   0.2418
   5.100   0.5938   0.00984   0.00352   0.0024  0.1571  1.0000  -2.1335   0.0000   0.0000   0.0000   0.2417
   5.200   0.6043   0.01000   0.00363   0.0025  0.1499  1.0000  -2.1927   0.0000   0.0000   0.0000   0.2415
   5.300   0.6151   0.01008   0.00373   0.0026  0.1440  1.0000  -2.2534   0.0000   0.0000   0.0000   0.2414
   5.400   0.6256   0.01023   0.00384   0.0027  0.1373  1.0000  -2.3139   0.0000   0.0000   0.0000   0.2412
   5.500   0.6362   0.01036   0.00396   0.0028  0.1313  1.0000  -2.3745   0.0000   0.0000   0.0000   0.2410
   5.600   0.6468   0.01048   0.00408   0.0029  0.1254  1.0000  -2.4361   0.0000   0.0000   0.0000   0.2409
   5.700   0.6572   0.01066   0.00421   0.0030  0.1187  1.0000  -2.4971   0.0000   0.0000   0.0000   0.2407
   5.800   0.6679   0.01078   0.00434   0.0031  0.1134  1.0000  -2.5795   0.0000   0.0000   0.0000   0.2406
   5.900   0.6784   0.01092   0.00446   0.0032  0.1075  1.0000  -2.6941   0.0000   0.0000   0.0000   0.2404
   6.000   0.6887   0.01113   0.00463   0.0033  0.1015  1.0000  -2.8080   0.0000   0.0000   0.0000   0.2403
   6.100   0.6994   0.01123   0.00479   0.0034  0.0970  1.0000  -2.9328   0.0000   0.0000   0.0000   0.2401
   6.200   0.7098   0.01140   0.00494   0.0035  0.0919  1.0000  -3.0533   0.0000   0.0000   0.0000   0.2400
   6.300   0.7201   0.01161   0.00513   0.0036  0.0869  1.0000  -3.1723   0.0000   0.0000   0.0000   0.2398
   6.400   0.7308   0.01173   0.00528   0.0037  0.0829  1.0000  -3.2961   0.0000   0.0000   0.0000   0.2396
   6.500   0.7411   0.01192   0.00544   0.0038  0.0783  1.0000  -3.4193   0.0000   0.0000   0.0000   0.2395
   6.600   0.7513   0.01216   0.00566   0.0039  0.0737  1.0000  -3.5406   0.0000   0.0000   0.0000   0.2393
   6.700   0.7619   0.01229   0.00583   0.0040  0.0701  1.0000  -3.6679   0.0000   0.0000   0.0000   0.2391
   6.800   0.7721   0.01250   0.00602   0.0041  0.0659  1.0000  -3.7940   0.0000   0.0000   0.0000   0.2390
   6.900   0.7821   0.01281   0.00631   0.0043  0.0616  1.0000  -3.9154   0.0000   0.0000   0.0000   0.2387
   7.000   0.7926   0.01296   0.00650   0.0044  0.0585  1.0000  -4.0451   0.0000   0.0000   0.0000   0.2386
   7.100   0.8028   0.01319   0.00672   0.0045  0.0551  1.0000  -4.1739   0.0000   0.0000   0.0000   0.2384
   7.200   0.8121   0.01364   0.00714   0.0047  0.0511  1.0000  -4.2913   0.0000   0.0000   0.0000   0.2381
   7.300   0.8227   0.01377   0.00732   0.0048  0.0490  1.0000  -4.4257   0.0000   0.0000   0.0000   0.2380
   7.400   0.8331   0.01395   0.00752   0.0049  0.0466  1.0000  -4.5601   0.0000   0.0000   0.0000   0.2378
   7.500   0.8431   0.01420   0.00777   0.0051  0.0443  1.0000  -4.6936   0.0000   0.0000   0.0000   0.2376
   7.600   0.8519   0.01476   0.00832   0.0053  0.0416  1.0000  -4.8083   0.0000   0.0000   0.0000   0.2373
   7.700   0.8621   0.01498   0.00861   0.0054  0.0405  1.0000  -4.9380   0.0000   0.0000   0.0000   0.2371
   7.800   0.8724   0.01519   0.00887   0.0056  0.0394  1.0000  -5.0716   0.0000   0.0000   0.0000   0.2369
   7.900   0.8825   0.01543   0.00915   0.0057  0.0381  1.0000  -5.2062   0.0000   0.0000   0.0000   0.2367
   8.000   0.8924   0.01569   0.00944   0.0059  0.0369  1.0000  -5.3421   0.0000   0.0000   0.0000   0.2365
   8.100   0.9023   0.01596   0.00973   0.0060  0.0358  1.0000  -5.4795   0.0000   0.0000   0.0000   0.2363
   8.200   0.9119   0.01629   0.01008   0.0062  0.0347  1.0000  -5.6146   0.0000   0.0000   0.0000   0.2361
   8.300   0.9208   0.01680   0.01060   0.0064  0.0335  1.0000  -5.7389   0.0000   0.0000   0.0000   0.2358
   8.400   0.9289   0.01746   0.01130   0.0067  0.0322  1.0000  -5.8523   0.0000   0.0000   0.0000   0.2355
   8.500   0.9397   0.01750   0.01139   0.0067  0.0314  1.0000  -6.0106   0.0000   0.0000   0.0000   0.2354
   8.600   0.9503   0.01757   0.01150   0.0068  0.0302  1.0000  -6.1698   0.0000   0.0000   0.0000   0.2353
   8.700   0.9607   0.01766   0.01161   0.0068  0.0289  1.0000  -6.3317   0.0000   0.0000   0.0000   0.2352
   8.800   0.9710   0.01778   0.01175   0.0069  0.0277  1.0000  -6.4944   0.0000   0.0000   0.0000   0.2351
   8.900   0.9806   0.01804   0.01201   0.0070  0.0266  1.0000  -6.6475   0.0000   0.0000   0.0000   0.2349
   9.000   0.9890   0.01858   0.01257   0.0072  0.0254  1.0000  -6.7759   0.0000   0.0000   0.0000   0.2347
   9.100   0.9966   0.01931   0.01336   0.0075  0.0244  1.0000  -6.8862   0.0000   0.0000   0.0000   0.2343
   9.200   1.0070   0.01943   0.01353   0.0076  0.0239  1.0000  -7.0436   0.0000   0.0000   0.0000   0.2342
   9.300   1.0170   0.01960   0.01377   0.0077  0.0230  1.0000  -7.1964   0.0000   0.0000   0.0000   0.2340
   9.400   1.0269   0.01981   0.01405   0.0078  0.0220  1.0000  -7.3504   0.0000   0.0000   0.0000   0.2339
   9.500   1.0368   0.01999   0.01426   0.0078  0.0209  1.0000  -7.5067   0.0000   0.0000   0.0000   0.2337
   9.600   1.0466   0.02018   0.01446   0.0079  0.0197  1.0000  -7.6643   0.0000   0.0000   0.0000   0.2336
   9.700   1.0517   0.02132   0.01564   0.0082  0.0177  1.0000  -7.7248   0.0000   0.0000   0.0000   0.2332
   9.800   1.0635   0.02115   0.01554   0.0082  0.0164  1.0000  -7.8789   0.0000   0.0000   0.0000   0.2332
   9.900   1.0742   0.02117   0.01556   0.0082  0.0141  1.0000  -8.0080   0.0000   0.0000   0.0000   0.2331
  10.000   1.0790   0.02237   0.01681   0.0086  0.0118  1.0000  -8.0027   0.0000   0.0000   0.0000   0.2327
  10.100   1.0889   0.02258   0.01709   0.0087  0.0109  1.0000  -8.1169   0.0000   0.0000   0.0000   0.2325
  10.200   1.0978   0.02293   0.01749   0.0088  0.0101  1.0000  -8.2334   0.0000   0.0000   0.0000   0.2323
  10.300   1.1068   0.02325   0.01785   0.0090  0.0095  1.0000  -8.3700   0.0000   0.0000   0.0000   0.2321
  10.400   1.1157   0.02357   0.01819   0.0091  0.0089  1.0000  -8.5194   0.0000   0.0000   0.0000   0.2320
  10.500   1.1237   0.02404   0.01870   0.0092  0.0084  1.0000  -8.6555   0.0000   0.0000   0.0000   0.2318
  10.600   1.1289   0.02501   0.01974   0.0094  0.0079  1.0000  -8.7304   0.0000   0.0000   0.0000   0.2315
  10.700   1.1305   0.02656   0.02143   0.0098  0.0074  1.0000  -8.7273   0.0000   0.0000   0.0000   0.2310
  10.800   1.1390   0.02689   0.02182   0.0100  0.0073  1.0000  -8.8785   0.0000   0.0000   0.0000   0.2308
  10.900   1.1468   0.02734   0.02234   0.0101  0.0071  1.0000  -9.0157   0.0000   0.0000   0.0000   0.2306
  11.000   1.1537   0.02791   0.02298   0.0103  0.0070  1.0000  -9.1378   0.0000   0.0000   0.0000   0.2304
  11.100   1.1598   0.02860   0.02375   0.0105  0.0068  1.0000  -9.2520   0.0000   0.0000   0.0000   0.2301
  11.200   1.1651   0.02940   0.02464   0.0107  0.0067  1.0000  -9.3780   0.0000   0.0000   0.0000   0.2298
  11.300   1.1697   0.03026   0.02561   0.0109  0.0066  1.0000  -9.4984   0.0000   0.0000   0.0000   0.2295
  11.400   1.1739   0.03114   0.02660   0.0112  0.0065  1.0000  -9.6126   0.0000   0.0000   0.0000   0.2292
  11.500   1.1776   0.03207   0.02762   0.0113  0.0064  1.0000  -9.7205   0.0000   0.0000   0.0000   0.2290
  11.600   1.1806   0.03304   0.02869   0.0115  0.0063  1.0000  -9.8216   0.0000   0.0000   0.0000   0.2287
  11.700   1.1829   0.03406   0.02980   0.0117  0.0063  1.0000  -9.9149   0.0000   0.0000   0.0000   0.2285
  11.800   1.1845   0.03513   0.03096   0.0118  0.0062  1.0000  -9.9991   0.0000   0.0000   0.0000   0.2283
  11.900   1.1851   0.03626   0.03219   0.0118  0.0061  1.0000  -10.0726   0.0000   0.0000   0.0000   0.2281
  12.000   1.1838   0.03741   0.03342   0.0120  0.0061  1.0000  -10.1259   0.0000   0.0000   0.0000   0.2278
  12.100   1.1812   0.03869   0.03479   0.0119  0.0060  1.0000  -10.1619   0.0000   0.0000   0.0000   0.2277
  12.200   1.1776   0.04022   0.03640   0.0112  0.0060  1.0000  -10.1801   0.0000   0.0000   0.0000   0.2281
  12.300   1.1736   0.04208   0.03836   0.0098  0.0060  1.0000  -10.1824   0.0000   0.0000   0.0000   0.2290
  12.400   1.1693   0.04430   0.04066   0.0078  0.0060  1.0000  -10.1714   0.0000   0.0000   0.0000   0.2305
  12.500   1.1647   0.04683   0.04328   0.0054  0.0060  1.0000  -10.1477   0.0000   0.0000   0.0000   0.2324
  12.600   1.1598   0.04961   0.04616   0.0029  0.0060  1.0000  -10.1111   0.0000   0.0000   0.0000   0.2344
  12.700   1.1540   0.05260   0.04922   0.0002  0.0060  1.0000  -10.0602   0.0000   0.0000   0.0000   0.2365
  12.800   1.1477   0.05573   0.05244  -0.0024  0.0060  1.0000  -9.9965   0.0000   0.0000   0.0000   0.2387
  12.900   1.1406   0.05900   0.05578  -0.0050  0.0060  1.0000  -9.9205   0.0000   0.0000   0.0000   0.2408
  13.000   1.1329   0.06234   0.05919  -0.0075  0.0061  1.0000  -9.8341   0.0000   0.0000   0.0000   0.2429
  13.100   1.1246   0.06572   0.06263  -0.0099  0.0061  1.0000  -9.7373   0.0000   0.0000   0.0000   0.2449
  13.200   1.1158   0.06917   0.06613  -0.0122  0.0061  1.0000  -9.6320   0.0000   0.0000   0.0000   0.2470
  13.300   1.1066   0.07267   0.06969  -0.0145  0.0062  1.0000  -9.5194   0.0000   0.0000   0.0000   0.2490
  13.400   1.0972   0.07623   0.07331  -0.0168  0.0062  1.0000  -9.3995   0.0000   0.0000   0.0000   0.2511
  13.500   1.0875   0.07983   0.07696  -0.0190  0.0062  1.0000  -9.2739   0.0000   0.0000   0.0000   0.2532
  13.600   1.0776   0.08341   0.08058  -0.0211  0.0063  1.0000  -9.1446   0.0000   0.0000   0.0000   0.2552
  13.700   1.0677   0.08700   0.08422  -0.0232  0.0063  1.0000  -9.0111   0.0000   0.0000   0.0000   0.2573
  13.800   1.0574   0.09071   0.08797  -0.0254  0.0064  1.0000  -8.8682   0.0000   0.0000   0.0000   0.2594
  13.900   1.0474   0.09444   0.09174  -0.0275  0.0064  1.0000  -8.7239   0.0000   0.0000   0.0000   0.2616
  14.000   1.0374   0.09820   0.09552  -0.0296  0.0065  1.0000  -8.5745   0.0000   0.0000   0.0000   0.2638
  14.100   1.0268   0.10213   0.09949  -0.0318  0.0066  1.0000  -8.4112   0.0000   0.0000   0.0000   0.2662
  14.200   1.0163   0.10607   0.10347  -0.0339  0.0066  1.0000  -8.2446   0.0000   0.0000   0.0000   0.2686
  14.300   1.0052   0.11024   0.10768  -0.0362  0.0067  1.0000  -8.0587   0.0000   0.0000   0.0000   0.2712
  14.400   0.9941   0.11447   0.11195  -0.0384  0.0068  1.0000  -7.8666   0.0000   0.0000   0.0000   0.2738
  14.500   0.9826   0.11894   0.11646  -0.0407  0.0069  1.0000  -7.6567   0.0000   0.0000   0.0000   0.2767
  14.600   0.9702   0.12379   0.12134  -0.0433  0.0069  1.0000  -7.4143   0.0000   0.0000   0.0000   0.2798
  14.700   0.9553   0.12937   0.12697  -0.0461  0.0071  1.0000  -7.1025   0.0000   0.0000   0.0000   0.2836
  14.900   0.8159   0.17645   0.17407  -0.0647  0.0121  1.0000  -3.0736   0.0000   0.0000   0.0000   0.3178
  15.000   0.8174   0.17842   0.17605  -0.0655  0.0122  1.0000  -3.0442   0.0000   0.0000   0.0000   0.3186


