xflr5 v6.61

 Calculated polar for: S8025 (8%)

 1 1 Reynolds number fixed          Mach number fixed         

 xtrf =   1.000 (top)        1.000 (bottom)
 Mach =   0.000     Re =     0.325 e 6     Ncrit =   9.000

  alpha     CL        CD       CDp       Cm    Top Xtr Bot Xtr   Cpmin    Chinge    XCp    
 ------- -------- --------- --------- -------- ------- ------- -------- --------- ---------
 -10.000  -0.6830   0.11317   0.11043   0.0341  1.0000  0.0259  -2.1061   0.0000   0.0000   0.0000   0.2946
  -9.900  -0.6834   0.11114   0.10841   0.0330  1.0000  0.0263  -2.1344   0.0000   0.0000   0.0000   0.2930
  -9.800  -0.6840   0.10898   0.10626   0.0318  1.0000  0.0267  -2.1712   0.0000   0.0000   0.0000   0.2912
  -7.300  -0.7338   0.03251   0.02762  -0.0107  1.0000  0.0150  -4.4355   0.0000   0.0000   0.0000   0.2304
  -7.200  -0.7250   0.03139   0.02656  -0.0105  1.0000  0.0136  -4.3861   0.0000   0.0000   0.0000   0.2306
  -7.100  -0.7199   0.02923   0.02418  -0.0102  1.0000  0.0130  -4.4268   0.0000   0.0000   0.0000   0.2309
  -7.000  -0.7134   0.02734   0.02205  -0.0099  1.0000  0.0125  -4.4659   0.0000   0.0000   0.0000   0.2313
  -6.900  -0.7063   0.02554   0.02000  -0.0094  1.0000  0.0119  -4.5124   0.0000   0.0000   0.0000   0.2318
  -6.800  -0.6986   0.02376   0.01794  -0.0089  1.0000  0.0112  -4.5767   0.0000   0.0000   0.0000   0.2324
  -6.700  -0.6901   0.02222   0.01615  -0.0083  1.0000  0.0107  -4.6312   0.0000   0.0000   0.0000   0.2331
  -6.600  -0.6809   0.02110   0.01484  -0.0079  1.0000  0.0103  -4.6367   0.0000   0.0000   0.0000   0.2337
  -6.500  -0.6714   0.02024   0.01384  -0.0075  1.0000  0.0101  -4.6083   0.0000   0.0000   0.0000   0.2342
  -6.400  -0.6618   0.01953   0.01303  -0.0071  1.0000  0.0099  -4.5581   0.0000   0.0000   0.0000   0.2346
  -6.300  -0.6521   0.01889   0.01230  -0.0068  1.0000  0.0098  -4.4969   0.0000   0.0000   0.0000   0.2351
  -6.200  -0.6424   0.01829   0.01162  -0.0065  1.0000  0.0098  -4.4304   0.0000   0.0000   0.0000   0.2354
  -6.100  -0.6327   0.01770   0.01097  -0.0062  1.0000  0.0098  -4.3617   0.0000   0.0000   0.0000   0.2358
  -6.000  -0.6231   0.01712   0.01034  -0.0059  1.0000  0.0098  -4.2920   0.0000   0.0000   0.0000   0.2363
  -5.900  -0.6135   0.01656   0.00973  -0.0056  1.0000  0.0098  -4.2220   0.0000   0.0000   0.0000   0.2367
  -5.800  -0.6039   0.01601   0.00914  -0.0053  1.0000  0.0098  -4.1514   0.0000   0.0000   0.0000   0.2371
  -5.700  -0.5943   0.01549   0.00857  -0.0050  1.0000  0.0099  -4.0798   0.0000   0.0000   0.0000   0.2375
  -5.600  -0.5846   0.01499   0.00804  -0.0047  1.0000  0.0101  -4.0065   0.0000   0.0000   0.0000   0.2379
  -5.500  -0.5748   0.01454   0.00754  -0.0044  1.0000  0.0103  -3.9304   0.0000   0.0000   0.0000   0.2383
  -5.400  -0.5649   0.01412   0.00709  -0.0041  1.0000  0.0105  -3.8514   0.0000   0.0000   0.0000   0.2387
  -5.300  -0.5549   0.01375   0.00668  -0.0039  1.0000  0.0109  -3.7696   0.0000   0.0000   0.0000   0.2391
  -5.200  -0.5447   0.01341   0.00630  -0.0037  1.0000  0.0113  -3.6871   0.0000   0.0000   0.0000   0.2394
  -5.100  -0.5345   0.01310   0.00595  -0.0035  1.0000  0.0118  -3.6057   0.0000   0.0000   0.0000   0.2398
  -5.000  -0.5241   0.01282   0.00559  -0.0032  1.0000  0.0124  -3.5150   0.0000   0.0000   0.0000   0.2401
  -4.900  -0.5136   0.01254   0.00526  -0.0030  1.0000  0.0134  -3.4441   0.0000   0.0000   0.0000   0.2405
  -4.800  -0.5032   0.01223   0.00490  -0.0028  1.0000  0.0150  -3.3881   0.0000   0.0000   0.0000   0.2409
  -4.700  -0.4935   0.01163   0.00434  -0.0024  1.0000  0.0241  -3.3892   0.0000   0.0000   0.0000   0.2416
  -4.600  -0.4845   0.01097   0.00398  -0.0022  1.0000  0.0648  -3.3544   0.0000   0.0000   0.0000   0.2421
  -4.500  -0.4741   0.01076   0.00384  -0.0020  1.0000  0.0786  -3.2400   0.0000   0.0000   0.0000   0.2423
  -4.400  -0.4637   0.01059   0.00371  -0.0019  1.0000  0.0895  -3.1181   0.0000   0.0000   0.0000   0.2425
  -4.300  -0.4533   0.01040   0.00360  -0.0018  1.0000  0.1035  -2.9940   0.0000   0.0000   0.0000   0.2427
  -4.200  -0.4432   0.01017   0.00349  -0.0017  1.0000  0.1230  -2.8696   0.0000   0.0000   0.0000   0.2429
  -4.100  -0.4330   0.00997   0.00340  -0.0016  1.0000  0.1438  -2.7456   0.0000   0.0000   0.0000   0.2431
  -4.000  -0.4227   0.00977   0.00331  -0.0015  1.0000  0.1645  -2.6228   0.0000   0.0000   0.0000   0.2433
  -3.900  -0.4125   0.00958   0.00321  -0.0014  1.0000  0.1851  -2.5016   0.0000   0.0000   0.0000   0.2436
  -3.800  -0.4022   0.00939   0.00311  -0.0013  1.0000  0.2054  -2.3821   0.0000   0.0000   0.0000   0.2438
  -3.700  -0.3919   0.00920   0.00301  -0.0011  1.0000  0.2245  -2.2645   0.0000   0.0000   0.0000   0.2441
  -3.600  -0.3815   0.00903   0.00292  -0.0010  1.0000  0.2423  -2.1484   0.0000   0.0000   0.0000   0.2444
  -3.500  -0.3712   0.00887   0.00282  -0.0009  1.0000  0.2603  -2.0341   0.0000   0.0000   0.0000   0.2448
  -3.400  -0.3608   0.00872   0.00273  -0.0007  1.0000  0.2786  -1.9220   0.0000   0.0000   0.0000   0.2452
  -3.300  -0.3503   0.00858   0.00262  -0.0006  1.0000  0.2973  -1.8159   0.0000   0.0000   0.0000   0.2456
  -3.200  -0.3400   0.00843   0.00254  -0.0004  1.0000  0.3166  -1.7082   0.0000   0.0000   0.0000   0.2460
  -3.100  -0.3297   0.00828   0.00247  -0.0003  1.0000  0.3363  -1.6242   0.0000   0.0000   0.0000   0.2465
  -3.000  -0.3194   0.00814   0.00240  -0.0001  1.0000  0.3572  -1.5416   0.0000   0.0000   0.0000   0.2470
  -2.900  -0.3091   0.00799   0.00234   0.0000  1.0000  0.3791  -1.4604   0.0000   0.0000   0.0000   0.2476
  -2.800  -0.2988   0.00785   0.00228   0.0002  1.0000  0.4016  -1.3804   0.0000   0.0000   0.0000   0.2482
  -2.700  -0.2886   0.00772   0.00223   0.0004  1.0000  0.4241  -1.3018   0.0000   0.0000   0.0000   0.2489
  -2.500  -0.2681   0.00747   0.00214   0.0008  1.0000  0.4689  -1.1489   0.0000   0.0000   0.0000   0.2506
  -2.400  -0.2580   0.00734   0.00210   0.0011  1.0000  0.4921  -1.0748   0.0000   0.0000   0.0000   0.2517
  -2.300  -0.2480   0.00721   0.00207   0.0013  1.0000  0.5170  -1.0021   0.0000   0.0000   0.0000   0.2529
  -2.200  -0.2379   0.00709   0.00205   0.0016  1.0000  0.5422  -0.9310   0.0000   0.0000   0.0000   0.2543
  -2.100  -0.2280   0.00697   0.00202   0.0019  1.0000  0.5668  -0.8613   0.0000   0.0000   0.0000   0.2558
  -2.000  -0.2180   0.00686   0.00201   0.0022  1.0000  0.5906  -0.8132   0.0000   0.0000   0.0000   0.2576
  -1.900  -0.2080   0.00676   0.00199   0.0025  1.0000  0.6130  -0.7855   0.0000   0.0000   0.0000   0.2596
  -1.800  -0.1980   0.00667   0.00197   0.0028  1.0000  0.6335  -0.7594   0.0000   0.0000   0.0000   0.2617
  -1.700  -0.1880   0.00658   0.00192   0.0031  1.0000  0.6537  -0.7334   0.0000   0.0000   0.0000   0.2641
  -1.600  -0.1781   0.00649   0.00191   0.0034  1.0000  0.6723  -0.7078   0.0000   0.0000   0.0000   0.2669
  -1.500  -0.1682   0.00641   0.00190   0.0037  1.0000  0.6905  -0.6824   0.0000   0.0000   0.0000   0.2701
  -1.400  -0.1583   0.00633   0.00190   0.0041  1.0000  0.7095  -0.6571   0.0000   0.0000   0.0000   0.2737
  -1.200  -0.1389   0.00617   0.00190   0.0049  1.0000  0.7490  -0.6075   0.0000   0.0000   0.0000   0.2830
  -1.100  -0.1275   0.00610   0.00191   0.0049  0.9976  0.7700  -0.5809   0.0000   0.0000   0.0000   0.2866
  -1.000  -0.1103   0.00603   0.00193   0.0038  0.9865  0.7925  -0.5493   0.0000   0.0000   0.0000   0.2822
  -0.900  -0.0935   0.00597   0.00194   0.0028  0.9729  0.8144  -0.5202   0.0000   0.0000   0.0000   0.2776
  -0.800  -0.0769   0.00592   0.00195   0.0019  0.9565  0.8358  -0.4917   0.0000   0.0000   0.0000   0.2723
  -0.700  -0.0604   0.00589   0.00196   0.0011  0.9377  0.8565  -0.4634   0.0000   0.0000   0.0000   0.2653
  -0.600  -0.0454   0.00586   0.00196   0.0006  0.9151  0.8763  -0.4368   0.0000   0.0000   0.0000   0.2616
  -0.500  -0.0324   0.00586   0.00196   0.0007  0.8912  0.8948  -0.4136   0.0000   0.0000   0.0000   0.2686
  -0.400  -0.0205   0.00589   0.00195   0.0010  0.8661  0.9122  -0.3951   0.0000   0.0000   0.0000   0.2947
  -0.300  -0.0080   0.00594   0.00193   0.0011  0.8414  0.9282  -0.3860   0.0000   0.0000   0.0000   0.3850
  -0.200   0.0056   0.00600   0.00190   0.0009  0.8174  0.9423  -0.4024   0.0000   0.0000   0.0000   0.0850
  -0.100   0.0201   0.00607   0.00188   0.0005  0.7943  0.9545  -0.4195   0.0000   0.0000   0.0000   0.2236
   0.000   0.0351   0.00615   0.00186  -0.0001  0.7719  0.9652  -0.4371   0.0000   0.0000   0.0000   0.2515
   0.100   0.0508   0.00622   0.00183  -0.0009  0.7506  0.9750  -0.4554   0.0000   0.0000   0.0000   0.2661
   0.200   0.0673   0.00630   0.00181  -0.0019  0.7302  0.9842  -0.4759   0.0000   0.0000   0.0000   0.2766
   0.300   0.0843   0.00636   0.00179  -0.0031  0.7111  0.9928  -0.4969   0.0000   0.0000   0.0000   0.2847
   0.400   0.1023   0.00643   0.00176  -0.0045  0.6922  1.0000  -0.5189   0.0000   0.0000   0.0000   0.2922
   0.500   0.1122   0.00650   0.00175  -0.0042  0.6759  1.0000  -0.5343   0.0000   0.0000   0.0000   0.2857
   0.600   0.1222   0.00657   0.00173  -0.0039  0.6590  1.0000  -0.5498   0.0000   0.0000   0.0000   0.2805
   0.700   0.1322   0.00663   0.00172  -0.0037  0.6428  1.0000  -0.5655   0.0000   0.0000   0.0000   0.2761
   0.800   0.1421   0.00671   0.00171  -0.0034  0.6266  1.0000  -0.5812   0.0000   0.0000   0.0000   0.2722
   0.900   0.1523   0.00677   0.00171  -0.0032  0.6100  1.0000  -0.5971   0.0000   0.0000   0.0000   0.2690
   1.000   0.1624   0.00685   0.00170  -0.0030  0.5946  1.0000  -0.6136   0.0000   0.0000   0.0000   0.2662
   1.100   0.1724   0.00693   0.00170  -0.0027  0.5786  1.0000  -0.6313   0.0000   0.0000   0.0000   0.2637
   1.200   0.1826   0.00699   0.00170  -0.0025  0.5635  1.0000  -0.6491   0.0000   0.0000   0.0000   0.2616
   1.300   0.1927   0.00708   0.00172  -0.0023  0.5487  1.0000  -0.6670   0.0000   0.0000   0.0000   0.2596
   1.400   0.2031   0.00714   0.00173  -0.0021  0.5343  1.0000  -0.6871   0.0000   0.0000   0.0000   0.2580
   1.500   0.2132   0.00723   0.00173  -0.0019  0.5208  1.0000  -0.7095   0.0000   0.0000   0.0000   0.2565
   1.600   0.2236   0.00729   0.00175  -0.0017  0.5073  1.0000  -0.7322   0.0000   0.0000   0.0000   0.2552
   1.700   0.2339   0.00738   0.00176  -0.0015  0.4949  1.0000  -0.7549   0.0000   0.0000   0.0000   0.2540
   1.800   0.2443   0.00744   0.00178  -0.0013  0.4820  1.0000  -0.7780   0.0000   0.0000   0.0000   0.2530
   1.900   0.2546   0.00754   0.00180  -0.0011  0.4696  1.0000  -0.8013   0.0000   0.0000   0.0000   0.2520
   2.000   0.2651   0.00760   0.00183  -0.0010  0.4571  1.0000  -0.8276   0.0000   0.0000   0.0000   0.2512
   2.200   0.2860   0.00776   0.00189  -0.0006  0.4332  1.0000  -0.8803   0.0000   0.0000   0.0000   0.2497
   2.300   0.2963   0.00786   0.00191  -0.0005  0.4215  1.0000  -0.9069   0.0000   0.0000   0.0000   0.2490
   2.400   0.3069   0.00792   0.00195  -0.0003  0.4112  1.0000  -0.9339   0.0000   0.0000   0.0000   0.2485
   2.500   0.3174   0.00801   0.00199  -0.0002  0.4002  1.0000  -0.9610   0.0000   0.0000   0.0000   0.2479
   2.600   0.3279   0.00810   0.00203  -0.0000  0.3899  1.0000  -0.9881   0.0000   0.0000   0.0000   0.2474
   2.700   0.3385   0.00817   0.00207   0.0001  0.3791  1.0000  -1.0157   0.0000   0.0000   0.0000   0.2469
   2.900   0.3596   0.00835   0.00217   0.0004  0.3583  1.0000  -1.0711   0.0000   0.0000   0.0000   0.2461
   3.000   0.3701   0.00845   0.00226   0.0005  0.3476  1.0000  -1.0990   0.0000   0.0000   0.0000   0.2457
   3.100   0.3807   0.00854   0.00232   0.0007  0.3379  1.0000  -1.1283   0.0000   0.0000   0.0000   0.2454
   3.200   0.3913   0.00863   0.00237   0.0008  0.3275  1.0000  -1.1605   0.0000   0.0000   0.0000   0.2450
   3.300   0.4017   0.00874   0.00243   0.0009  0.3176  1.0000  -1.1927   0.0000   0.0000   0.0000   0.2447
   3.400   0.4125   0.00881   0.00249   0.0010  0.3081  1.0000  -1.2320   0.0000   0.0000   0.0000   0.2445
   3.500   0.4230   0.00893   0.00255   0.0011  0.2985  1.0000  -1.2755   0.0000   0.0000   0.0000   0.2442
   3.600   0.4336   0.00901   0.00262   0.0013  0.2900  1.0000  -1.3197   0.0000   0.0000   0.0000   0.2439
   3.700   0.4443   0.00911   0.00269   0.0014  0.2809  1.0000  -1.3642   0.0000   0.0000   0.0000   0.2437
   3.800   0.4547   0.00924   0.00276   0.0015  0.2719  1.0000  -1.4087   0.0000   0.0000   0.0000   0.2434
   3.900   0.4655   0.00931   0.00283   0.0016  0.2638  1.0000  -1.4543   0.0000   0.0000   0.0000   0.2432
   4.000   0.4760   0.00943   0.00291   0.0017  0.2549  1.0000  -1.4999   0.0000   0.0000   0.0000   0.2430
   4.100   0.4866   0.00954   0.00299   0.0018  0.2470  1.0000  -1.5525   0.0000   0.0000   0.0000   0.2428
   4.200   0.4974   0.00963   0.00308   0.0019  0.2389  1.0000  -1.6072   0.0000   0.0000   0.0000   0.2426
   4.300   0.5078   0.00976   0.00316   0.0020  0.2310  1.0000  -1.6619   0.0000   0.0000   0.0000   0.2424
   4.400   0.5186   0.00986   0.00326   0.0021  0.2240  1.0000  -1.7175   0.0000   0.0000   0.0000   0.2422
   4.500   0.5292   0.00996   0.00339   0.0022  0.2164  1.0000  -1.7743   0.0000   0.0000   0.0000   0.2420
   4.600   0.5396   0.01013   0.00350   0.0023  0.2085  1.0000  -1.8303   0.0000   0.0000   0.0000   0.2418
   4.700   0.5504   0.01021   0.00360   0.0024  0.2017  1.0000  -1.8876   0.0000   0.0000   0.0000   0.2417
   4.800   0.5610   0.01034   0.00370   0.0025  0.1940  1.0000  -1.9450   0.0000   0.0000   0.0000   0.2415
   4.900   0.5714   0.01050   0.00382   0.0027  0.1865  1.0000  -2.0021   0.0000   0.0000   0.0000   0.2413
   5.000   0.5821   0.01059   0.00392   0.0028  0.1795  1.0000  -2.0609   0.0000   0.0000   0.0000   0.2412
   5.100   0.5926   0.01075   0.00404   0.0028  0.1720  1.0000  -2.1192   0.0000   0.0000   0.0000   0.2410
   5.200   0.6031   0.01088   0.00416   0.0030  0.1652  1.0000  -2.1781   0.0000   0.0000   0.0000   0.2408
   5.300   0.6138   0.01100   0.00427   0.0030  0.1580  1.0000  -2.2380   0.0000   0.0000   0.0000   0.2407
   5.400   0.6240   0.01121   0.00442   0.0031  0.1505  1.0000  -2.2967   0.0000   0.0000   0.0000   0.2405
   5.500   0.6348   0.01129   0.00454   0.0032  0.1444  1.0000  -2.3578   0.0000   0.0000   0.0000   0.2404
   5.600   0.6453   0.01144   0.00466   0.0033  0.1376  1.0000  -2.4184   0.0000   0.0000   0.0000   0.2402
   5.700   0.6557   0.01162   0.00482   0.0034  0.1313  1.0000  -2.4783   0.0000   0.0000   0.0000   0.2401
   5.800   0.6663   0.01174   0.00495   0.0035  0.1252  1.0000  -2.5541   0.0000   0.0000   0.0000   0.2399
   5.900   0.6765   0.01196   0.00512   0.0036  0.1188  1.0000  -2.6654   0.0000   0.0000   0.0000   0.2398
   6.000   0.6870   0.01211   0.00529   0.0038  0.1133  1.0000  -2.7798   0.0000   0.0000   0.0000   0.2396
   6.100   0.6975   0.01227   0.00547   0.0039  0.1074  1.0000  -2.9018   0.0000   0.0000   0.0000   0.2395
   6.200   0.7075   0.01254   0.00569   0.0040  0.1014  1.0000  -3.0181   0.0000   0.0000   0.0000   0.2393
   6.300   0.7182   0.01264   0.00584   0.0041  0.0966  1.0000  -3.1400   0.0000   0.0000   0.0000   0.2391
   6.400   0.7285   0.01284   0.00601   0.0042  0.0914  1.0000  -3.2607   0.0000   0.0000   0.0000   0.2390
   6.500   0.7386   0.01311   0.00626   0.0043  0.0865  1.0000  -3.3784   0.0000   0.0000   0.0000   0.2388
   6.600   0.7491   0.01325   0.00644   0.0044  0.0822  1.0000  -3.5024   0.0000   0.0000   0.0000   0.2386
   6.700   0.7593   0.01348   0.00665   0.0045  0.0777  1.0000  -3.6254   0.0000   0.0000   0.0000   0.2385
   6.800   0.7692   0.01379   0.00695   0.0047  0.0732  1.0000  -3.7438   0.0000   0.0000   0.0000   0.2382
   6.900   0.7796   0.01396   0.00716   0.0048  0.0694  1.0000  -3.8697   0.0000   0.0000   0.0000   0.2381
   7.000   0.7897   0.01423   0.00741   0.0049  0.0654  1.0000  -3.9942   0.0000   0.0000   0.0000   0.2379
   7.100   0.7990   0.01466   0.00783   0.0051  0.0616  1.0000  -4.1090   0.0000   0.0000   0.0000   0.2376
   7.200   0.8094   0.01487   0.00809   0.0053  0.0587  1.0000  -4.2354   0.0000   0.0000   0.0000   0.2374
   7.300   0.8195   0.01511   0.00835   0.0054  0.0558  1.0000  -4.3629   0.0000   0.0000   0.0000   0.2372
   7.400   0.8289   0.01553   0.00874   0.0056  0.0529  1.0000  -4.4840   0.0000   0.0000   0.0000   0.2370
   7.500   0.8381   0.01599   0.00922   0.0058  0.0505  1.0000  -4.5999   0.0000   0.0000   0.0000   0.2367
   7.600   0.8484   0.01619   0.00947   0.0060  0.0486  1.0000  -4.7317   0.0000   0.0000   0.0000   0.2365
   7.700   0.8585   0.01642   0.00974   0.0061  0.0466  1.0000  -4.8641   0.0000   0.0000   0.0000   0.2363
   7.800   0.8684   0.01669   0.01005   0.0062  0.0449  1.0000  -4.9921   0.0000   0.0000   0.0000   0.2361
   7.900   0.8778   0.01709   0.01046   0.0064  0.0433  1.0000  -5.1176   0.0000   0.0000   0.0000   0.2359
   8.000   0.8854   0.01794   0.01130   0.0067  0.0415  1.0000  -5.2164   0.0000   0.0000   0.0000   0.2355
   8.100   0.8952   0.01826   0.01168   0.0069  0.0407  1.0000  -5.3443   0.0000   0.0000   0.0000   0.2353
   8.200   0.9051   0.01855   0.01205   0.0071  0.0398  1.0000  -5.4741   0.0000   0.0000   0.0000   0.2350
   8.300   0.9148   0.01890   0.01246   0.0073  0.0388  1.0000  -5.6022   0.0000   0.0000   0.0000   0.2348
   8.400   0.9244   0.01926   0.01288   0.0075  0.0379  1.0000  -5.7305   0.0000   0.0000   0.0000   0.2345
   8.500   0.9340   0.01960   0.01326   0.0077  0.0368  1.0000  -5.8632   0.0000   0.0000   0.0000   0.2343
   8.600   0.9436   0.01986   0.01354   0.0078  0.0357  1.0000  -6.0047   0.0000   0.0000   0.0000   0.2341
   8.700   0.9531   0.02014   0.01382   0.0079  0.0343  1.0000  -6.1516   0.0000   0.0000   0.0000   0.2340
   8.800   0.9598   0.02115   0.01484   0.0082  0.0326  1.0000  -6.2516   0.0000   0.0000   0.0000   0.2337
   8.900   0.9702   0.02120   0.01495   0.0083  0.0315  1.0000  -6.4075   0.0000   0.0000   0.0000   0.2336
   9.000   0.9805   0.02124   0.01508   0.0083  0.0302  1.0000  -6.5652   0.0000   0.0000   0.0000   0.2335
   9.100   0.9906   0.02135   0.01522   0.0084  0.0288  1.0000  -6.7231   0.0000   0.0000   0.0000   0.2334
   9.200   1.0004   0.02151   0.01540   0.0084  0.0275  1.0000  -6.8800   0.0000   0.0000   0.0000   0.2333
   9.300   1.0095   0.02181   0.01573   0.0085  0.0264  1.0000  -7.0260   0.0000   0.0000   0.0000   0.2331
   9.400   1.0166   0.02261   0.01653   0.0088  0.0252  1.0000  -7.1338   0.0000   0.0000   0.0000   0.2328
   9.500   1.0241   0.02335   0.01740   0.0090  0.0241  1.0000  -7.2354   0.0000   0.0000   0.0000   0.2325
   9.600   1.0340   0.02352   0.01766   0.0092  0.0230  1.0000  -7.3732   0.0000   0.0000   0.0000   0.2324
   9.700   1.0435   0.02373   0.01795   0.0093  0.0215  1.0000  -7.5041   0.0000   0.0000   0.0000   0.2322
   9.800   1.0530   0.02389   0.01812   0.0093  0.0199  1.0000  -7.6448   0.0000   0.0000   0.0000   0.2321
   9.900   1.0560   0.02542   0.01969   0.0097  0.0177  1.0000  -7.6503   0.0000   0.0000   0.0000   0.2317
  10.000   1.0663   0.02552   0.01992   0.0098  0.0159  1.0000  -7.7271   0.0000   0.0000   0.0000   0.2315
  10.100   1.0746   0.02596   0.02042   0.0099  0.0144  1.0000  -7.7990   0.0000   0.0000   0.0000   0.2313
  10.200   1.0823   0.02647   0.02096   0.0101  0.0135  1.0000  -7.8944   0.0000   0.0000   0.0000   0.2311
  10.300   1.0873   0.02747   0.02201   0.0103  0.0128  1.0000  -7.9466   0.0000   0.0000   0.0000   0.2308
  10.400   1.0851   0.02989   0.02461   0.0109  0.0121  1.0000  -7.8480   0.0000   0.0000   0.0000   0.2301
  10.500   1.0912   0.03068   0.02550   0.0112  0.0118  1.0000  -7.9113   0.0000   0.0000   0.0000   0.2298
  10.600   1.0975   0.03138   0.02631   0.0114  0.0116  1.0000  -7.9882   0.0000   0.0000   0.0000   0.2296
  10.700   1.1031   0.03216   0.02721   0.0116  0.0113  1.0000  -8.0613   0.0000   0.0000   0.0000   0.2293
  10.800   1.1082   0.03299   0.02815   0.0118  0.0110  1.0000  -8.1339   0.0000   0.0000   0.0000   0.2290
  10.900   1.1130   0.03383   0.02909   0.0120  0.0107  1.0000  -8.2089   0.0000   0.0000   0.0000   0.2288
  11.000   1.1174   0.03466   0.03001   0.0121  0.0104  1.0000  -8.2884   0.0000   0.0000   0.0000   0.2286
  11.100   1.1215   0.03549   0.03094   0.0123  0.0101  1.0000  -8.3705   0.0000   0.0000   0.0000   0.2284
  11.200   1.1255   0.03628   0.03181   0.0123  0.0098  1.0000  -8.4633   0.0000   0.0000   0.0000   0.2282
  11.300   1.1294   0.03703   0.03263   0.0124  0.0095  1.0000  -8.5836   0.0000   0.0000   0.0000   0.2281
  11.400   1.1331   0.03774   0.03340   0.0124  0.0093  1.0000  -8.7088   0.0000   0.0000   0.0000   0.2279
  11.500   1.1367   0.03844   0.03414   0.0124  0.0090  1.0000  -8.8358   0.0000   0.0000   0.0000   0.2279
  11.600   1.1390   0.03917   0.03492   0.0124  0.0088  1.0000  -8.9508   0.0000   0.0000   0.0000   0.2277
  11.700   1.1397   0.04002   0.03581   0.0124  0.0086  1.0000  -9.0462   0.0000   0.0000   0.0000   0.2275
  11.800   1.1384   0.04116   0.03705   0.0122  0.0085  1.0000  -9.1056   0.0000   0.0000   0.0000   0.2276
  11.900   1.1359   0.04258   0.03853   0.0114  0.0085  1.0000  -9.1430   0.0000   0.0000   0.0000   0.2280
  12.000   1.1330   0.04426   0.04029   0.0102  0.0084  1.0000  -9.1656   0.0000   0.0000   0.0000   0.2290
  12.100   1.1295   0.04626   0.04236   0.0085  0.0083  1.0000  -9.1711   0.0000   0.0000   0.0000   0.2303
  12.200   1.1256   0.04854   0.04472   0.0064  0.0083  1.0000  -9.1623   0.0000   0.0000   0.0000   0.2319
  12.300   1.1212   0.05105   0.04732   0.0041  0.0083  1.0000  -9.1391   0.0000   0.0000   0.0000   0.2338
  12.400   1.1161   0.05378   0.05013   0.0017  0.0083  1.0000  -9.1017   0.0000   0.0000   0.0000   0.2358
  12.500   1.1105   0.05669   0.05313  -0.0008  0.0083  1.0000  -9.0501   0.0000   0.0000   0.0000   0.2378
  12.600   1.1040   0.05980   0.05632  -0.0033  0.0083  1.0000  -8.9816   0.0000   0.0000   0.0000   0.2400
  12.700   1.0965   0.06310   0.05970  -0.0059  0.0084  1.0000  -8.8925   0.0000   0.0000   0.0000   0.2422
  12.800   1.0883   0.06650   0.06316  -0.0084  0.0084  1.0000  -8.7912   0.0000   0.0000   0.0000   0.2444
  12.900   1.0732   0.07134   0.06812  -0.0117  0.0086  1.0000  -8.5489   0.0000   0.0000   0.0000   0.2475
  13.000   1.0288   0.08220   0.07926  -0.0187  0.0097  1.0000  -7.7347   0.0000   0.0000   0.0000   0.2549
  13.100   1.0024   0.08946   0.08663  -0.0231  0.0104  1.0000  -7.2839   0.0000   0.0000   0.0000   0.2599
  13.200   0.9841   0.09516   0.09239  -0.0266  0.0108  1.0000  -6.9924   0.0000   0.0000   0.0000   0.2638
  13.300   0.9675   0.10059   0.09786  -0.0297  0.0112  1.0000  -6.7473   0.0000   0.0000   0.0000   0.2676
  13.400   0.9509   0.10608   0.10339  -0.0329  0.0115  1.0000  -6.4980   0.0000   0.0000   0.0000   0.2715
  13.500   0.9335   0.11178   0.10911  -0.0360  0.0118  1.0000  -6.2284   0.0000   0.0000   0.0000   0.2755
  13.600   0.9148   0.11790   0.11525  -0.0392  0.0120  1.0000  -5.9240   0.0000   0.0000   0.0000   0.2799
  13.700   0.8096   0.15343   0.15075  -0.0543  0.0156  1.0000  -3.3810   0.0000   0.0000   0.0000   0.3066
  13.800   0.8067   0.15666   0.15396  -0.0556  0.0157  1.0000  -3.2478   0.0000   0.0000   0.0000   0.3084
  13.900   0.8045   0.15958   0.15688  -0.0567  0.0159  1.0000  -3.1353   0.0000   0.0000   0.0000   0.3101
  14.000   0.8030   0.16229   0.15958  -0.0578  0.0160  1.0000  -3.0398   0.0000   0.0000   0.0000   0.3115
  14.100   0.8021   0.16482   0.16210  -0.0587  0.0162  1.0000  -2.9596   0.0000   0.0000   0.0000   0.3127
  14.200   0.8017   0.16718   0.16446  -0.0596  0.0165  1.0000  -2.8937   0.0000   0.0000   0.0000   0.3138
  14.300   0.8017   0.16938   0.16665  -0.0604  0.0167  1.0000  -2.8417   0.0000   0.0000   0.0000   0.3148
  14.400   0.8021   0.17140   0.16866  -0.0611  0.0170  1.0000  -2.8051   0.0000   0.0000   0.0000   0.3155
  14.700   0.7997   0.18150   0.17876  -0.0619  0.0246  1.0000  -2.4333   0.0000   0.0000   0.0000   0.3167
  14.800   0.8011   0.18358   0.18084  -0.0627  0.0245  1.0000  -2.4036   0.0000   0.0000   0.0000   0.3175
  14.900   0.8025   0.18565   0.18290  -0.0635  0.0245  1.0000  -2.3748   0.0000   0.0000   0.0000   0.3183
  15.000   0.8040   0.18770   0.18495  -0.0643  0.0245  1.0000  -2.3599   0.0000   0.0000   0.0000   0.3191


