xflr5 v6.61

 Calculated polar for: S8025 (8%)

 1 1 Reynolds number fixed          Mach number fixed         

 xtrf =   1.000 (top)        1.000 (bottom)
 Mach =   0.000     Re =     0.475 e 6     Ncrit =   9.000

  alpha     CL        CD       CDp       Cm    Top Xtr Bot Xtr   Cpmin    Chinge    XCp    
 ------- -------- --------- --------- -------- ------- ------- -------- --------- ---------
 -10.000  -0.6910   0.11020   0.10793   0.0339  1.0000  0.0173  -2.3136   0.0000   0.0000   0.0000   0.2935
  -9.900  -0.6912   0.10827   0.10601   0.0329  1.0000  0.0175  -2.3329   0.0000   0.0000   0.0000   0.2922
  -9.800  -0.6915   0.10627   0.10402   0.0319  1.0000  0.0177  -2.3547   0.0000   0.0000   0.0000   0.2908
  -9.700  -0.6919   0.10423   0.10198   0.0309  1.0000  0.0178  -2.3793   0.0000   0.0000   0.0000   0.2892
  -9.600  -0.6926   0.10214   0.09990   0.0298  1.0000  0.0180  -2.4070   0.0000   0.0000   0.0000   0.2876
  -9.500  -0.6935   0.10000   0.09777   0.0286  1.0000  0.0182  -2.4380   0.0000   0.0000   0.0000   0.2859
  -9.400  -0.6946   0.09780   0.09558   0.0274  1.0000  0.0183  -2.4724   0.0000   0.0000   0.0000   0.2842
  -9.300  -0.6961   0.09554   0.09333   0.0261  1.0000  0.0185  -2.5105   0.0000   0.0000   0.0000   0.2822
  -9.200  -0.6977   0.09319   0.09099   0.0246  1.0000  0.0187  -2.5529   0.0000   0.0000   0.0000   0.2802
  -9.100  -0.6995   0.09075   0.08856   0.0231  1.0000  0.0188  -2.5987   0.0000   0.0000   0.0000   0.2779
  -9.000  -0.7016   0.08824   0.08606   0.0215  1.0000  0.0190  -2.6489   0.0000   0.0000   0.0000   0.2755
  -8.900  -0.7041   0.08560   0.08343   0.0196  1.0000  0.0191  -2.7043   0.0000   0.0000   0.0000   0.2728
  -7.000  -0.7168   0.02426   0.01912  -0.0088  1.0000  0.0094  -4.8373   0.0000   0.0000   0.0000   0.2327
  -6.900  -0.7061   0.02420   0.01900  -0.0086  1.0000  0.0093  -4.7200   0.0000   0.0000   0.0000   0.2329
  -6.800  -0.6970   0.02328   0.01806  -0.0083  1.0000  0.0088  -4.6663   0.0000   0.0000   0.0000   0.2332
  -6.700  -0.6900   0.02146   0.01604  -0.0079  1.0000  0.0085  -4.7022   0.0000   0.0000   0.0000   0.2337
  -6.600  -0.6816   0.02026   0.01471  -0.0075  1.0000  0.0083  -4.6845   0.0000   0.0000   0.0000   0.2342
  -6.500  -0.6727   0.01927   0.01359  -0.0072  1.0000  0.0081  -4.6513   0.0000   0.0000   0.0000   0.2347
  -6.400  -0.6635   0.01840   0.01260  -0.0068  1.0000  0.0079  -4.6084   0.0000   0.0000   0.0000   0.2351
  -6.300  -0.6541   0.01761   0.01173  -0.0065  1.0000  0.0078  -4.5584   0.0000   0.0000   0.0000   0.2356
  -6.200  -0.6447   0.01690   0.01094  -0.0061  1.0000  0.0077  -4.5026   0.0000   0.0000   0.0000   0.2360
  -6.100  -0.6351   0.01626   0.01021  -0.0058  1.0000  0.0076  -4.4421   0.0000   0.0000   0.0000   0.2365
  -6.000  -0.6255   0.01566   0.00955  -0.0055  1.0000  0.0076  -4.3772   0.0000   0.0000   0.0000   0.2369
  -5.900  -0.6158   0.01512   0.00894  -0.0052  1.0000  0.0075  -4.3082   0.0000   0.0000   0.0000   0.2373
  -5.800  -0.6061   0.01461   0.00838  -0.0049  1.0000  0.0075  -4.2358   0.0000   0.0000   0.0000   0.2378
  -5.700  -0.5962   0.01414   0.00786  -0.0046  1.0000  0.0075  -4.1601   0.0000   0.0000   0.0000   0.2382
  -5.600  -0.5864   0.01371   0.00737  -0.0043  1.0000  0.0075  -4.0815   0.0000   0.0000   0.0000   0.2386
  -5.500  -0.5764   0.01330   0.00693  -0.0040  1.0000  0.0075  -4.0003   0.0000   0.0000   0.0000   0.2390
  -5.400  -0.5664   0.01293   0.00651  -0.0038  1.0000  0.0076  -3.9167   0.0000   0.0000   0.0000   0.2394
  -5.300  -0.5562   0.01258   0.00612  -0.0035  1.0000  0.0077  -3.8315   0.0000   0.0000   0.0000   0.2398
  -5.200  -0.5460   0.01226   0.00575  -0.0033  1.0000  0.0078  -3.7449   0.0000   0.0000   0.0000   0.2402
  -5.100  -0.5357   0.01196   0.00541  -0.0031  1.0000  0.0080  -3.6566   0.0000   0.0000   0.0000   0.2405
  -5.000  -0.5253   0.01170   0.00509  -0.0029  1.0000  0.0081  -3.5563   0.0000   0.0000   0.0000   0.2409
  -4.900  -0.5148   0.01145   0.00479  -0.0027  1.0000  0.0084  -3.4687   0.0000   0.0000   0.0000   0.2412
  -4.800  -0.5043   0.01122   0.00452  -0.0025  1.0000  0.0087  -3.3805   0.0000   0.0000   0.0000   0.2416
  -4.700  -0.4937   0.01103   0.00429  -0.0023  1.0000  0.0090  -3.2895   0.0000   0.0000   0.0000   0.2419
  -4.600  -0.4835   0.01063   0.00383  -0.0019  1.0000  0.0112  -3.2634   0.0000   0.0000   0.0000   0.2425
  -4.500  -0.4737   0.01011   0.00341  -0.0016  1.0000  0.0273  -3.2453   0.0000   0.0000   0.0000   0.2432
  -4.400  -0.4641   0.00970   0.00319  -0.0015  1.0000  0.0570  -3.1616   0.0000   0.0000   0.0000   0.2435
  -4.300  -0.4537   0.00951   0.00307  -0.0013  1.0000  0.0694  -3.0434   0.0000   0.0000   0.0000   0.2438
  -4.200  -0.4432   0.00934   0.00297  -0.0012  1.0000  0.0807  -2.9199   0.0000   0.0000   0.0000   0.2440
  -4.100  -0.4328   0.00918   0.00286  -0.0011  1.0000  0.0920  -2.7952   0.0000   0.0000   0.0000   0.2443
  -4.000  -0.4223   0.00902   0.00277  -0.0010  1.0000  0.1053  -2.6707   0.0000   0.0000   0.0000   0.2446
  -3.900  -0.4119   0.00886   0.00268  -0.0009  1.0000  0.1191  -2.5471   0.0000   0.0000   0.0000   0.2449
  -3.800  -0.4014   0.00871   0.00259  -0.0007  1.0000  0.1329  -2.4246   0.0000   0.0000   0.0000   0.2451
  -3.700  -0.3911   0.00853   0.00251  -0.0006  1.0000  0.1516  -2.3043   0.0000   0.0000   0.0000   0.2454
  -3.600  -0.3809   0.00833   0.00243  -0.0005  1.0000  0.1744  -2.1862   0.0000   0.0000   0.0000   0.2458
  -3.500  -0.3707   0.00814   0.00235  -0.0004  1.0000  0.1990  -2.0700   0.0000   0.0000   0.0000   0.2461
  -3.400  -0.3604   0.00795   0.00228  -0.0003  1.0000  0.2243  -1.9561   0.0000   0.0000   0.0000   0.2465
  -3.300  -0.3502   0.00778   0.00219  -0.0001  1.0000  0.2493  -1.8482   0.0000   0.0000   0.0000   0.2468
  -3.200  -0.3398   0.00764   0.00212   0.0000  1.0000  0.2669  -1.7361   0.0000   0.0000   0.0000   0.2473
  -3.100  -0.3293   0.00751   0.00206   0.0001  1.0000  0.2834  -1.6255   0.0000   0.0000   0.0000   0.2477
  -3.000  -0.3188   0.00740   0.00199   0.0003  1.0000  0.2995  -1.5386   0.0000   0.0000   0.0000   0.2482
  -2.900  -0.3083   0.00728   0.00194   0.0004  1.0000  0.3168  -1.4564   0.0000   0.0000   0.0000   0.2488
  -2.800  -0.2979   0.00716   0.00188   0.0006  1.0000  0.3345  -1.3759   0.0000   0.0000   0.0000   0.2494
  -2.700  -0.2875   0.00704   0.00183   0.0007  1.0000  0.3528  -1.2967   0.0000   0.0000   0.0000   0.2500
  -2.600  -0.2771   0.00692   0.00179   0.0009  1.0000  0.3726  -1.2188   0.0000   0.0000   0.0000   0.2507
  -2.500  -0.2667   0.00681   0.00175   0.0010  1.0000  0.3936  -1.1425   0.0000   0.0000   0.0000   0.2515
  -2.400  -0.2564   0.00668   0.00171   0.0012  1.0000  0.4147  -1.0679   0.0000   0.0000   0.0000   0.2523
  -2.300  -0.2461   0.00657   0.00167   0.0014  1.0000  0.4351  -0.9946   0.0000   0.0000   0.0000   0.2533
  -2.200  -0.2358   0.00647   0.00164   0.0016  1.0000  0.4545  -0.9226   0.0000   0.0000   0.0000   0.2543
  -2.100  -0.2254   0.00637   0.00161   0.0018  1.0000  0.4745  -0.8521   0.0000   0.0000   0.0000   0.2555
  -2.000  -0.2152   0.00626   0.00159   0.0020  1.0000  0.4977  -0.8113   0.0000   0.0000   0.0000   0.2568
  -1.900  -0.2051   0.00615   0.00157   0.0022  1.0000  0.5221  -0.7840   0.0000   0.0000   0.0000   0.2583
  -1.800  -0.1949   0.00604   0.00155   0.0024  1.0000  0.5458  -0.7577   0.0000   0.0000   0.0000   0.2601
  -1.700  -0.1848   0.00594   0.00151   0.0026  1.0000  0.5693  -0.7316   0.0000   0.0000   0.0000   0.2621
  -1.600  -0.1726   0.00584   0.00151   0.0024  0.9976  0.5922  -0.7030   0.0000   0.0000   0.0000   0.2618
  -1.500  -0.1558   0.00576   0.00150   0.0012  0.9885  0.6147  -0.6689   0.0000   0.0000   0.0000   0.2556
  -1.400  -0.1389   0.00569   0.00149   0.0001  0.9759  0.6348  -0.6351   0.0000   0.0000   0.0000   0.2481
  -1.300  -0.1213   0.00563   0.00148  -0.0013  0.9603  0.6542  -0.6006   0.0000   0.0000   0.0000   0.2373
  -1.200  -0.1040   0.00556   0.00147  -0.0024  0.9404  0.6739  -0.5668   0.0000   0.0000   0.0000   0.2244
  -1.100  -0.0895   0.00551   0.00146  -0.0029  0.9157  0.6928  -0.5387   0.0000   0.0000   0.0000   0.2150
  -1.000  -0.0783   0.00549   0.00144  -0.0027  0.8891  0.7106  -0.5155   0.0000   0.0000   0.0000   0.2133
  -0.900  -0.0687   0.00550   0.00143  -0.0021  0.8627  0.7288  -0.4943   0.0000   0.0000   0.0000   0.2173
  -0.800  -0.0597   0.00550   0.00141  -0.0013  0.8379  0.7464  -0.4739   0.0000   0.0000   0.0000   0.2250
  -0.700  -0.0507   0.00551   0.00140  -0.0007  0.8142  0.7635  -0.4536   0.0000   0.0000   0.0000   0.2344
  -0.600  -0.0415   0.00552   0.00140  -0.0000  0.7924  0.7812  -0.4333   0.0000   0.0000   0.0000   0.2470
  -0.500  -0.0323   0.00554   0.00139   0.0006  0.7723  0.7993  -0.4139   0.0000   0.0000   0.0000   0.2659
  -0.300  -0.0138   0.00555   0.00139   0.0018  0.7350  0.8367  -0.3822   0.0000   0.0000   0.0000   0.3795
  -0.200  -0.0044   0.00556   0.00138   0.0024  0.7187  0.8555  -0.3953   0.0000   0.0000   0.0000   0.7963
  -0.100   0.0050   0.00558   0.00138   0.0030  0.7033  0.8745  -0.4087   0.0000   0.0000   0.0000  -0.3548
   0.000   0.0149   0.00558   0.00138   0.0035  0.6885  0.8933  -0.4225   0.0000   0.0000   0.0000   0.0134
   0.100   0.0255   0.00560   0.00139   0.0038  0.6745  0.9116  -0.4369   0.0000   0.0000   0.0000   0.0967
   0.200   0.0376   0.00564   0.00139   0.0039  0.6593  0.9282  -0.4529   0.0000   0.0000   0.0000   0.1449
   0.300   0.0513   0.00568   0.00139   0.0035  0.6442  0.9426  -0.4712   0.0000   0.0000   0.0000   0.1802
   0.400   0.0660   0.00575   0.00138   0.0028  0.6279  0.9547  -0.4904   0.0000   0.0000   0.0000   0.2050
   0.500   0.0817   0.00580   0.00138   0.0019  0.6109  0.9655  -0.5105   0.0000   0.0000   0.0000   0.2241
   0.600   0.0979   0.00586   0.00137   0.0009  0.5939  0.9755  -0.5311   0.0000   0.0000   0.0000   0.2385
   0.800   0.1308   0.00600   0.00136  -0.0013  0.5588  0.9921  -0.5730   0.0000   0.0000   0.0000   0.2577
   0.900   0.1479   0.00607   0.00135  -0.0025  0.5419  0.9982  -0.5947   0.0000   0.0000   0.0000   0.2652
   1.000   0.1604   0.00614   0.00134  -0.0029  0.5266  1.0000  -0.6130   0.0000   0.0000   0.0000   0.2658
   1.100   0.1708   0.00619   0.00135  -0.0027  0.5140  1.0000  -0.6309   0.0000   0.0000   0.0000   0.2637
   1.200   0.1811   0.00626   0.00135  -0.0025  0.5011  1.0000  -0.6489   0.0000   0.0000   0.0000   0.2618
   1.300   0.1916   0.00631   0.00137  -0.0024  0.4898  1.0000  -0.6671   0.0000   0.0000   0.0000   0.2602
   1.400   0.2019   0.00637   0.00137  -0.0022  0.4773  1.0000  -0.6870   0.0000   0.0000   0.0000   0.2587
   1.500   0.2123   0.00644   0.00138  -0.0020  0.4658  1.0000  -0.7096   0.0000   0.0000   0.0000   0.2573
   1.600   0.2228   0.00650   0.00139  -0.0019  0.4535  1.0000  -0.7325   0.0000   0.0000   0.0000   0.2561
   1.700   0.2331   0.00658   0.00141  -0.0017  0.4419  1.0000  -0.7554   0.0000   0.0000   0.0000   0.2550
   1.800   0.2436   0.00663   0.00143  -0.0015  0.4304  1.0000  -0.7786   0.0000   0.0000   0.0000   0.2540
   2.000   0.2646   0.00677   0.00147  -0.0012  0.4095  1.0000  -0.8295   0.0000   0.0000   0.0000   0.2522
   2.100   0.2751   0.00684   0.00149  -0.0011  0.3991  1.0000  -0.8560   0.0000   0.0000   0.0000   0.2515
   2.200   0.2856   0.00691   0.00152  -0.0009  0.3895  1.0000  -0.8827   0.0000   0.0000   0.0000   0.2508
   2.300   0.2962   0.00697   0.00155  -0.0008  0.3794  1.0000  -0.9096   0.0000   0.0000   0.0000   0.2501
   2.400   0.3067   0.00707   0.00158  -0.0006  0.3687  1.0000  -0.9365   0.0000   0.0000   0.0000   0.2495
   2.500   0.3173   0.00712   0.00161  -0.0005  0.3596  1.0000  -0.9639   0.0000   0.0000   0.0000   0.2490
   2.600   0.3279   0.00720   0.00164  -0.0004  0.3491  1.0000  -0.9913   0.0000   0.0000   0.0000   0.2485
   2.700   0.3384   0.00728   0.00168  -0.0002  0.3397  1.0000  -1.0190   0.0000   0.0000   0.0000   0.2480
   2.800   0.3491   0.00735   0.00172  -0.0001  0.3300  1.0000  -1.0469   0.0000   0.0000   0.0000   0.2476
   2.900   0.3596   0.00745   0.00176   0.0000  0.3195  1.0000  -1.0747   0.0000   0.0000   0.0000   0.2471
   3.000   0.3703   0.00751   0.00184   0.0001  0.3106  1.0000  -1.1031   0.0000   0.0000   0.0000   0.2468
   3.100   0.3809   0.00760   0.00189   0.0003  0.3010  1.0000  -1.1322   0.0000   0.0000   0.0000   0.2464
   3.200   0.3915   0.00768   0.00193   0.0004  0.2925  1.0000  -1.1645   0.0000   0.0000   0.0000   0.2461
   3.300   0.4023   0.00775   0.00198   0.0005  0.2841  1.0000  -1.1972   0.0000   0.0000   0.0000   0.2458
   3.400   0.4128   0.00785   0.00204   0.0006  0.2751  1.0000  -1.2369   0.0000   0.0000   0.0000   0.2455
   3.500   0.4236   0.00792   0.00209   0.0007  0.2673  1.0000  -1.2810   0.0000   0.0000   0.0000   0.2452
   3.600   0.4342   0.00801   0.00214   0.0008  0.2588  1.0000  -1.3255   0.0000   0.0000   0.0000   0.2449
   3.700   0.4448   0.00812   0.00221   0.0009  0.2500  1.0000  -1.3699   0.0000   0.0000   0.0000   0.2446
   3.800   0.4556   0.00818   0.00227   0.0010  0.2434  1.0000  -1.4155   0.0000   0.0000   0.0000   0.2444
   3.900   0.4663   0.00827   0.00233   0.0011  0.2357  1.0000  -1.4611   0.0000   0.0000   0.0000   0.2442
   4.000   0.4769   0.00839   0.00240   0.0012  0.2280  1.0000  -1.5092   0.0000   0.0000   0.0000   0.2439
   4.100   0.4877   0.00845   0.00247   0.0013  0.2216  1.0000  -1.5641   0.0000   0.0000   0.0000   0.2437
   4.200   0.4984   0.00855   0.00254   0.0014  0.2142  1.0000  -1.6191   0.0000   0.0000   0.0000   0.2435
   4.300   0.5090   0.00867   0.00262   0.0015  0.2068  1.0000  -1.6744   0.0000   0.0000   0.0000   0.2433
   4.400   0.5198   0.00874   0.00269   0.0016  0.2004  1.0000  -1.7308   0.0000   0.0000   0.0000   0.2431
   4.500   0.5304   0.00886   0.00280   0.0017  0.1928  1.0000  -1.7882   0.0000   0.0000   0.0000   0.2429
   4.600   0.5410   0.00897   0.00289   0.0018  0.1858  1.0000  -1.8453   0.0000   0.0000   0.0000   0.2428
   4.700   0.5517   0.00906   0.00297   0.0019  0.1791  1.0000  -1.9033   0.0000   0.0000   0.0000   0.2426
   4.800   0.5623   0.00919   0.00306   0.0020  0.1715  1.0000  -1.9610   0.0000   0.0000   0.0000   0.2424
   4.900   0.5730   0.00929   0.00316   0.0021  0.1651  1.0000  -2.0197   0.0000   0.0000   0.0000   0.2422
   5.000   0.5837   0.00940   0.00324   0.0022  0.1580  1.0000  -2.0790   0.0000   0.0000   0.0000   0.2421
   5.100   0.5941   0.00956   0.00335   0.0023  0.1504  1.0000  -2.1378   0.0000   0.0000   0.0000   0.2419
   5.200   0.6049   0.00963   0.00344   0.0024  0.1449  1.0000  -2.1984   0.0000   0.0000   0.0000   0.2418
   5.300   0.6155   0.00976   0.00354   0.0025  0.1382  1.0000  -2.2588   0.0000   0.0000   0.0000   0.2416
   5.400   0.6261   0.00990   0.00366   0.0026  0.1320  1.0000  -2.3192   0.0000   0.0000   0.0000   0.2414
   5.500   0.6368   0.01000   0.00376   0.0027  0.1264  1.0000  -2.3808   0.0000   0.0000   0.0000   0.2413
   5.600   0.6473   0.01016   0.00387   0.0028  0.1198  1.0000  -2.4421   0.0000   0.0000   0.0000   0.2411
   5.700   0.6579   0.01029   0.00400   0.0029  0.1143  1.0000  -2.5040   0.0000   0.0000   0.0000   0.2410
   5.800   0.6685   0.01041   0.00411   0.0029  0.1086  1.0000  -2.5888   0.0000   0.0000   0.0000   0.2408
   5.900   0.6788   0.01062   0.00427   0.0030  0.1022  1.0000  -2.7017   0.0000   0.0000   0.0000   0.2407
   6.000   0.6895   0.01071   0.00439   0.0031  0.0982  1.0000  -2.8194   0.0000   0.0000   0.0000   0.2405
   6.100   0.7001   0.01086   0.00455   0.0032  0.0931  1.0000  -2.9434   0.0000   0.0000   0.0000   0.2403
   6.200   0.7103   0.01107   0.00472   0.0033  0.0876  1.0000  -3.0621   0.0000   0.0000   0.0000   0.2402
   6.300   0.7211   0.01117   0.00485   0.0034  0.0839  1.0000  -3.1855   0.0000   0.0000   0.0000   0.2400
   6.400   0.7315   0.01133   0.00500   0.0035  0.0794  1.0000  -3.3087   0.0000   0.0000   0.0000   0.2399
   6.500   0.7417   0.01158   0.00521   0.0036  0.0744  1.0000  -3.4295   0.0000   0.0000   0.0000   0.2397
   6.600   0.7524   0.01168   0.00535   0.0037  0.0712  1.0000  -3.5568   0.0000   0.0000   0.0000   0.2395
   6.700   0.7628   0.01186   0.00552   0.0038  0.0671  1.0000  -3.6834   0.0000   0.0000   0.0000   0.2394
   6.800   0.7727   0.01217   0.00578   0.0040  0.0623  1.0000  -3.8050   0.0000   0.0000   0.0000   0.2392
   6.900   0.7834   0.01229   0.00595   0.0041  0.0595  1.0000  -3.9357   0.0000   0.0000   0.0000   0.2390
   7.000   0.7937   0.01248   0.00614   0.0042  0.0560  1.0000  -4.0654   0.0000   0.0000   0.0000   0.2388
   7.100   0.8032   0.01289   0.00651   0.0044  0.0513  1.0000  -4.1846   0.0000   0.0000   0.0000   0.2386
   7.200   0.8139   0.01300   0.00666   0.0045  0.0493  1.0000  -4.3199   0.0000   0.0000   0.0000   0.2384
   7.300   0.8243   0.01317   0.00685   0.0046  0.0467  1.0000  -4.4545   0.0000   0.0000   0.0000   0.2383
   7.400   0.8344   0.01342   0.00709   0.0047  0.0441  1.0000  -4.5875   0.0000   0.0000   0.0000   0.2381
   7.500   0.8435   0.01391   0.00757   0.0049  0.0412  1.0000  -4.7051   0.0000   0.0000   0.0000   0.2378
   7.600   0.8540   0.01406   0.00777   0.0050  0.0401  1.0000  -4.8430   0.0000   0.0000   0.0000   0.2376
   7.700   0.8644   0.01425   0.00802   0.0052  0.0388  1.0000  -4.9755   0.0000   0.0000   0.0000   0.2374
   7.800   0.8745   0.01447   0.00827   0.0053  0.0374  1.0000  -5.1114   0.0000   0.0000   0.0000   0.2372
   7.900   0.8846   0.01471   0.00853   0.0054  0.0361  1.0000  -5.2493   0.0000   0.0000   0.0000   0.2371
   8.000   0.8945   0.01500   0.00883   0.0056  0.0349  1.0000  -5.3855   0.0000   0.0000   0.0000   0.2368
   8.100   0.9036   0.01545   0.00930   0.0058  0.0336  1.0000  -5.5115   0.0000   0.0000   0.0000   0.2366
   8.200   0.9120   0.01607   0.00996   0.0060  0.0323  1.0000  -5.6253   0.0000   0.0000   0.0000   0.2362
   8.300   0.9226   0.01617   0.01010   0.0061  0.0316  1.0000  -5.7769   0.0000   0.0000   0.0000   0.2361
   8.400   0.9331   0.01627   0.01025   0.0062  0.0306  1.0000  -5.9313   0.0000   0.0000   0.0000   0.2360
   8.500   0.9436   0.01638   0.01038   0.0063  0.0294  1.0000  -6.0893   0.0000   0.0000   0.0000   0.2359
   8.600   0.9540   0.01649   0.01050   0.0063  0.0281  1.0000  -6.2508   0.0000   0.0000   0.0000   0.2358
   8.700   0.9640   0.01668   0.01068   0.0064  0.0269  1.0000  -6.4094   0.0000   0.0000   0.0000   0.2356
   8.800   0.9731   0.01708   0.01110   0.0065  0.0258  1.0000  -6.5495   0.0000   0.0000   0.0000   0.2354
   8.900   0.9805   0.01787   0.01194   0.0069  0.0245  1.0000  -6.6561   0.0000   0.0000   0.0000   0.2351
   9.000   0.9909   0.01798   0.01209   0.0069  0.0241  1.0000  -6.8157   0.0000   0.0000   0.0000   0.2349
   9.100   1.0012   0.01813   0.01230   0.0070  0.0235  1.0000  -6.9725   0.0000   0.0000   0.0000   0.2348
   9.200   1.0112   0.01832   0.01253   0.0071  0.0227  1.0000  -7.1277   0.0000   0.0000   0.0000   0.2346
   9.300   1.0212   0.01850   0.01275   0.0072  0.0218  1.0000  -7.2838   0.0000   0.0000   0.0000   0.2344
   9.400   1.0312   0.01869   0.01299   0.0073  0.0208  1.0000  -7.4456   0.0000   0.0000   0.0000   0.2343
   9.500   1.0409   0.01890   0.01321   0.0074  0.0198  1.0000  -7.6051   0.0000   0.0000   0.0000   0.2342
   9.600   1.0478   0.01970   0.01404   0.0076  0.0181  1.0000  -7.7064   0.0000   0.0000   0.0000   0.2339
   9.700   1.0582   0.01980   0.01420   0.0077  0.0170  1.0000  -7.8572   0.0000   0.0000   0.0000   0.2337
   9.800   1.0694   0.01974   0.01416   0.0077  0.0152  1.0000  -8.0134   0.0000   0.0000   0.0000   0.2337
   9.900   1.0762   0.02057   0.01498   0.0079  0.0120  1.0000  -8.0592   0.0000   0.0000   0.0000   0.2334
  10.000   1.0872   0.02055   0.01500   0.0080  0.0108  1.0000  -8.1951   0.0000   0.0000   0.0000   0.2333
  10.100   1.0969   0.02077   0.01525   0.0081  0.0097  1.0000  -8.3266   0.0000   0.0000   0.0000   0.2331
  10.200   1.1062   0.02106   0.01554   0.0082  0.0089  1.0000  -8.4730   0.0000   0.0000   0.0000   0.2330
  10.300   1.1136   0.02172   0.01624   0.0084  0.0080  1.0000  -8.5748   0.0000   0.0000   0.0000   0.2327
  10.400   1.1183   0.02286   0.01750   0.0087  0.0074  1.0000  -8.6093   0.0000   0.0000   0.0000   0.2323
  10.500   1.1274   0.02316   0.01785   0.0088  0.0072  1.0000  -8.7608   0.0000   0.0000   0.0000   0.2321
  10.600   1.1359   0.02356   0.01831   0.0090  0.0070  1.0000  -8.9008   0.0000   0.0000   0.0000   0.2319
  10.700   1.1439   0.02404   0.01886   0.0092  0.0068  1.0000  -9.0303   0.0000   0.0000   0.0000   0.2316
  10.800   1.1513   0.02461   0.01949   0.0094  0.0066  1.0000  -9.1487   0.0000   0.0000   0.0000   0.2314
  10.900   1.1583   0.02524   0.02021   0.0096  0.0064  1.0000  -9.2582   0.0000   0.0000   0.0000   0.2311
  11.000   1.1649   0.02590   0.02095   0.0098  0.0063  1.0000  -9.3670   0.0000   0.0000   0.0000   0.2308
  11.100   1.1714   0.02658   0.02170   0.0100  0.0061  1.0000  -9.5067   0.0000   0.0000   0.0000   0.2306
  11.200   1.1774   0.02729   0.02252   0.0103  0.0060  1.0000  -9.6510   0.0000   0.0000   0.0000   0.2303
  11.300   1.1832   0.02801   0.02332   0.0105  0.0059  1.0000  -9.7923   0.0000   0.0000   0.0000   0.2300
  11.400   1.1887   0.02876   0.02414   0.0107  0.0058  1.0000  -9.9311   0.0000   0.0000   0.0000   0.2297
  11.500   1.1939   0.02953   0.02499   0.0109  0.0057  1.0000  -10.0667   0.0000   0.0000   0.0000   0.2295
  11.600   1.1986   0.03032   0.02587   0.0111  0.0056  1.0000  -10.1989   0.0000   0.0000   0.0000   0.2292
  11.700   1.2029   0.03114   0.02677   0.0112  0.0055  1.0000  -10.3270   0.0000   0.0000   0.0000   0.2289
  11.800   1.2067   0.03200   0.02770   0.0114  0.0054  1.0000  -10.4499   0.0000   0.0000   0.0000   0.2287
  11.900   1.2100   0.03289   0.02868   0.0115  0.0054  1.0000  -10.5666   0.0000   0.0000   0.0000   0.2285
  12.000   1.2126   0.03383   0.02969   0.0116  0.0053  1.0000  -10.6757   0.0000   0.0000   0.0000   0.2282
  12.100   1.2144   0.03482   0.03077   0.0117  0.0052  1.0000  -10.7753   0.0000   0.0000   0.0000   0.2280
  12.200   1.2149   0.03586   0.03189   0.0118  0.0052  1.0000  -10.8597   0.0000   0.0000   0.0000   0.2278
  12.300   1.2135   0.03697   0.03307   0.0119  0.0051  1.0000  -10.9215   0.0000   0.0000   0.0000   0.2276
  12.400   1.2108   0.03827   0.03445   0.0117  0.0051  1.0000  -10.9625   0.0000   0.0000   0.0000   0.2276
  12.500   1.2073   0.03988   0.03614   0.0107  0.0051  1.0000  -10.9827   0.0000   0.0000   0.0000   0.2282
  12.600   1.2032   0.04189   0.03823   0.0090  0.0051  1.0000  -10.9848   0.0000   0.0000   0.0000   0.2294
  12.700   1.1988   0.04427   0.04070   0.0068  0.0051  1.0000  -10.9707   0.0000   0.0000   0.0000   0.2310
  12.800   1.1941   0.04699   0.04351   0.0042  0.0051  1.0000  -10.9416   0.0000   0.0000   0.0000   0.2330
  12.900   1.1886   0.04997   0.04657   0.0014  0.0051  1.0000  -10.8958   0.0000   0.0000   0.0000   0.2351
  13.000   1.1822   0.05314   0.04983  -0.0013  0.0051  1.0000  -10.8320   0.0000   0.0000   0.0000   0.2373
  13.100   1.1750   0.05646   0.05323  -0.0040  0.0051  1.0000  -10.7523   0.0000   0.0000   0.0000   0.2394
  13.200   1.1668   0.05992   0.05675  -0.0066  0.0051  1.0000  -10.6568   0.0000   0.0000   0.0000   0.2415
  13.300   1.1579   0.06344   0.06034  -0.0091  0.0051  1.0000  -10.5479   0.0000   0.0000   0.0000   0.2436
  13.400   1.1482   0.06701   0.06398  -0.0115  0.0052  1.0000  -10.4259   0.0000   0.0000   0.0000   0.2456
  13.500   1.1380   0.07065   0.06768  -0.0138  0.0052  1.0000  -10.2931   0.0000   0.0000   0.0000   0.2476
  13.600   1.1273   0.07437   0.07146  -0.0161  0.0053  1.0000  -10.1510   0.0000   0.0000   0.0000   0.2497
  13.700   1.1163   0.07815   0.07530  -0.0184  0.0053  1.0000  -10.0004   0.0000   0.0000   0.0000   0.2518
  13.800   1.1052   0.08194   0.07915  -0.0207  0.0054  1.0000  -9.8450   0.0000   0.0000   0.0000   0.2539
  13.900   1.0939   0.08571   0.08296  -0.0228  0.0054  1.0000  -9.6853   0.0000   0.0000   0.0000   0.2559
  14.000   1.0821   0.08962   0.08693  -0.0250  0.0055  1.0000  -9.5130   0.0000   0.0000   0.0000   0.2581
  14.100   1.0706   0.09356   0.09092  -0.0272  0.0055  1.0000  -9.3393   0.0000   0.0000   0.0000   0.2604
  14.200   1.0593   0.09750   0.09490  -0.0294  0.0056  1.0000  -9.1655   0.0000   0.0000   0.0000   0.2626
  14.300   1.0474   0.10164   0.09909  -0.0317  0.0057  1.0000  -8.9741   0.0000   0.0000   0.0000   0.2651
  14.400   1.0360   0.10571   0.10320  -0.0339  0.0057  1.0000  -8.7874   0.0000   0.0000   0.0000   0.2675
  14.500   1.0241   0.10997   0.10751  -0.0362  0.0058  1.0000  -8.5850   0.0000   0.0000   0.0000   0.2701
  14.600   1.0126   0.11424   0.11180  -0.0384  0.0059  1.0000  -8.3801   0.0000   0.0000   0.0000   0.2727
  14.700   1.0008   0.11872   0.11633  -0.0407  0.0060  1.0000  -8.1601   0.0000   0.0000   0.0000   0.2755
  14.800   0.9878   0.12363   0.12128  -0.0433  0.0061  1.0000  -7.9040   0.0000   0.0000   0.0000   0.2786
  14.900   0.9745   0.12876   0.12645  -0.0459  0.0062  1.0000  -7.6282   0.0000   0.0000   0.0000   0.2820
  15.000   0.9597   0.13439   0.13213  -0.0487  0.0063  1.0000  -7.3037   0.0000   0.0000   0.0000   0.2857


