xflr5 v6.61

 Calculated polar for: S8025 (8%)

 1 1 Reynolds number fixed          Mach number fixed         

 xtrf =   1.000 (top)        1.000 (bottom)
 Mach =   0.000     Re =     0.150 e 6     Ncrit =   9.000

  alpha     CL        CD       CDp       Cm    Top Xtr Bot Xtr   Cpmin    Chinge    XCp    
 ------- -------- --------- --------- -------- ------- ------- -------- --------- ---------
 -10.000  -0.6830   0.11839   0.11445   0.0296  1.0000  0.0581  -1.9941   0.0000   0.0000   0.0000   0.2881
  -9.900  -0.6878   0.11615   0.11224   0.0262  1.0000  0.0584  -2.0794   0.0000   0.0000   0.0000   0.2830
  -9.800  -0.6916   0.11388   0.10999   0.0235  1.0000  0.0586  -2.1459   0.0000   0.0000   0.0000   0.2789
  -9.700  -0.6953   0.11152   0.10766   0.0209  1.0000  0.0587  -2.2078   0.0000   0.0000   0.0000   0.2750
  -9.600  -0.6973   0.10925   0.10540   0.0188  1.0000  0.0587  -2.2547   0.0000   0.0000   0.0000   0.2719
  -9.500  -0.6947   0.10662   0.10280   0.0207  1.0000  0.0593  -2.2174   0.0000   0.0000   0.0000   0.2748
  -9.400  -0.6908   0.10505   0.10122   0.0219  1.0000  0.0596  -2.1737   0.0000   0.0000   0.0000   0.2769
  -9.300  -0.6875   0.10358   0.09975   0.0225  1.0000  0.0600  -2.1429   0.0000   0.0000   0.0000   0.2780
  -9.200  -0.6848   0.10210   0.09828   0.0228  1.0000  0.0603  -2.1216   0.0000   0.0000   0.0000   0.2785
  -9.100  -0.6827   0.10058   0.09676   0.0227  1.0000  0.0606  -2.1079   0.0000   0.0000   0.0000   0.2785
  -9.000  -0.6810   0.09902   0.09522   0.0224  1.0000  0.0610  -2.0985   0.0000   0.0000   0.0000   0.2783
  -8.900  -0.6796   0.09742   0.09362   0.0220  1.0000  0.0613  -2.0944   0.0000   0.0000   0.0000   0.2778
  -8.800  -0.6787   0.09575   0.09196   0.0214  1.0000  0.0617  -2.0952   0.0000   0.0000   0.0000   0.2771
  -8.700  -0.6783   0.09401   0.09024   0.0206  1.0000  0.0620  -2.1005   0.0000   0.0000   0.0000   0.2760
  -8.600  -0.6782   0.09220   0.08844   0.0197  1.0000  0.0624  -2.1100   0.0000   0.0000   0.0000   0.2747
  -7.800  -0.7208   0.05795   0.05371  -0.0088  1.0000  0.0358  -3.2061   0.0000   0.0000   0.0000   0.2331
  -7.700  -0.7318   0.05031   0.04552  -0.0110  1.0000  0.0279  -3.6699   0.0000   0.0000   0.0000   0.2301
  -7.600  -0.7294   0.04817   0.04332  -0.0113  1.0000  0.0273  -3.6729   0.0000   0.0000   0.0000   0.2298
  -7.500  -0.7266   0.04603   0.04107  -0.0115  1.0000  0.0266  -3.6900   0.0000   0.0000   0.0000   0.2294
  -7.400  -0.7236   0.04376   0.03863  -0.0117  1.0000  0.0258  -3.7257   0.0000   0.0000   0.0000   0.2291
  -7.300  -0.7207   0.04115   0.03580  -0.0118  1.0000  0.0248  -3.7952   0.0000   0.0000   0.0000   0.2288
  -7.200  -0.7215   0.03606   0.02989  -0.0116  1.0000  0.0222  -4.1414   0.0000   0.0000   0.0000   0.2291
  -7.100  -0.7130   0.03487   0.02837  -0.0111  1.0000  0.0214  -4.1779   0.0000   0.0000   0.0000   0.2296
  -7.000  -0.7041   0.03412   0.02746  -0.0108  1.0000  0.0212  -4.1414   0.0000   0.0000   0.0000   0.2299
  -6.900  -0.6959   0.03300   0.02617  -0.0105  1.0000  0.0210  -4.1132   0.0000   0.0000   0.0000   0.2301
  -6.800  -0.6888   0.03123   0.02424  -0.0103  1.0000  0.0208  -4.1158   0.0000   0.0000   0.0000   0.2304
  -6.700  -0.6811   0.02974   0.02256  -0.0100  1.0000  0.0207  -4.1087   0.0000   0.0000   0.0000   0.2306
  -6.600  -0.6727   0.02840   0.02104  -0.0097  1.0000  0.0206  -4.0958   0.0000   0.0000   0.0000   0.2310
  -6.500  -0.6640   0.02718   0.01966  -0.0094  1.0000  0.0205  -4.0778   0.0000   0.0000   0.0000   0.2313
  -6.400  -0.6549   0.02607   0.01839  -0.0090  1.0000  0.0205  -4.0552   0.0000   0.0000   0.0000   0.2317
  -6.300  -0.6456   0.02505   0.01723  -0.0087  1.0000  0.0206  -4.0281   0.0000   0.0000   0.0000   0.2321
  -6.200  -0.6360   0.02412   0.01617  -0.0083  1.0000  0.0207  -3.9970   0.0000   0.0000   0.0000   0.2325
  -6.100  -0.6263   0.02328   0.01521  -0.0080  1.0000  0.0209  -3.9616   0.0000   0.0000   0.0000   0.2329
  -6.000  -0.6165   0.02246   0.01432  -0.0076  1.0000  0.0211  -3.9259   0.0000   0.0000   0.0000   0.2333
  -5.900  -0.6078   0.02120   0.01299  -0.0072  1.0000  0.0215  -3.9136   0.0000   0.0000   0.0000   0.2339
  -5.800  -0.5990   0.02024   0.01201  -0.0069  1.0000  0.0222  -3.8772   0.0000   0.0000   0.0000   0.2344
  -5.700  -0.5897   0.01955   0.01131  -0.0066  1.0000  0.0231  -3.8214   0.0000   0.0000   0.0000   0.2348
  -5.600  -0.5801   0.01899   0.01074  -0.0063  1.0000  0.0242  -3.7628   0.0000   0.0000   0.0000   0.2351
  -5.500  -0.5703   0.01847   0.01018  -0.0059  1.0000  0.0256  -3.7117   0.0000   0.0000   0.0000   0.2356
  -5.400  -0.5604   0.01796   0.00961  -0.0056  1.0000  0.0274  -3.6712   0.0000   0.0000   0.0000   0.2361
  -5.300  -0.5511   0.01729   0.00891  -0.0052  1.0000  0.0297  -3.6442   0.0000   0.0000   0.0000   0.2367
  -5.200  -0.5414   0.01684   0.00850  -0.0050  1.0000  0.0341  -3.5727   0.0000   0.0000   0.0000   0.2369
  -5.100  -0.5316   0.01640   0.00810  -0.0048  1.0000  0.0416  -3.5024   0.0000   0.0000   0.0000   0.2372
  -5.000  -0.5219   0.01584   0.00758  -0.0046  1.0000  0.0569  -3.4739   0.0000   0.0000   0.0000   0.2376
  -4.900  -0.5131   0.01492   0.00691  -0.0042  1.0000  0.0946  -3.4884   0.0000   0.0000   0.0000   0.2382
  -4.800  -0.5029   0.01470   0.00674  -0.0041  1.0000  0.1162  -3.3830   0.0000   0.0000   0.0000   0.2382
  -4.700  -0.4927   0.01450   0.00661  -0.0041  1.0000  0.1338  -3.2657   0.0000   0.0000   0.0000   0.2382
  -4.600  -0.4823   0.01433   0.00645  -0.0040  1.0000  0.1489  -3.1496   0.0000   0.0000   0.0000   0.2384
  -4.500  -0.4725   0.01401   0.00622  -0.0038  1.0000  0.1632  -3.0370   0.0000   0.0000   0.0000   0.2386
  -4.400  -0.4626   0.01370   0.00598  -0.0036  1.0000  0.1778  -2.9252   0.0000   0.0000   0.0000   0.2389
  -4.300  -0.4526   0.01339   0.00574  -0.0034  1.0000  0.1933  -2.8143   0.0000   0.0000   0.0000   0.2392
  -4.200  -0.4425   0.01312   0.00551  -0.0032  1.0000  0.2104  -2.7025   0.0000   0.0000   0.0000   0.2395
  -4.100  -0.4324   0.01286   0.00530  -0.0030  1.0000  0.2288  -2.5906   0.0000   0.0000   0.0000   0.2399
  -4.000  -0.4225   0.01257   0.00510  -0.0028  1.0000  0.2484  -2.4800   0.0000   0.0000   0.0000   0.2402
  -3.900  -0.4126   0.01227   0.00491  -0.0026  1.0000  0.2689  -2.3704   0.0000   0.0000   0.0000   0.2406
  -3.800  -0.4028   0.01200   0.00474  -0.0024  1.0000  0.2910  -2.2611   0.0000   0.0000   0.0000   0.2411
  -3.700  -0.3929   0.01175   0.00459  -0.0022  1.0000  0.3147  -2.1526   0.0000   0.0000   0.0000   0.2416
  -3.600  -0.3831   0.01150   0.00445  -0.0019  1.0000  0.3398  -2.0499   0.0000   0.0000   0.0000   0.2421
  -3.500  -0.3732   0.01127   0.00432  -0.0017  1.0000  0.3659  -1.9647   0.0000   0.0000   0.0000   0.2427
  -3.400  -0.3634   0.01105   0.00420  -0.0014  1.0000  0.3926  -1.8793   0.0000   0.0000   0.0000   0.2434
  -3.300  -0.3537   0.01084   0.00405  -0.0011  1.0000  0.4202  -1.7909   0.0000   0.0000   0.0000   0.2442
  -3.200  -0.3441   0.01063   0.00396  -0.0008  1.0000  0.4481  -1.7099   0.0000   0.0000   0.0000   0.2451
  -3.100  -0.3345   0.01043   0.00389  -0.0004  1.0000  0.4767  -1.6300   0.0000   0.0000   0.0000   0.2462
  -3.000  -0.3251   0.01024   0.00383   0.0000  1.0000  0.5062  -1.5512   0.0000   0.0000   0.0000   0.2475
  -2.900  -0.3156   0.01007   0.00377   0.0005  1.0000  0.5357  -1.4735   0.0000   0.0000   0.0000   0.2490
  -2.800  -0.3062   0.00991   0.00372   0.0010  1.0000  0.5646  -1.3970   0.0000   0.0000   0.0000   0.2507
  -2.700  -0.2969   0.00976   0.00368   0.0015  1.0000  0.5926  -1.3216   0.0000   0.0000   0.0000   0.2525
  -2.600  -0.2875   0.00962   0.00364   0.0020  1.0000  0.6193  -1.2475   0.0000   0.0000   0.0000   0.2546
  -2.500  -0.2782   0.00949   0.00360   0.0026  1.0000  0.6446  -1.1747   0.0000   0.0000   0.0000   0.2569
  -2.400  -0.2689   0.00936   0.00356   0.0032  1.0000  0.6686  -1.1031   0.0000   0.0000   0.0000   0.2595
  -2.300  -0.2597   0.00925   0.00352   0.0038  1.0000  0.6923  -1.0330   0.0000   0.0000   0.0000   0.2624
  -2.200  -0.2506   0.00914   0.00349   0.0045  1.0000  0.7155  -0.9643   0.0000   0.0000   0.0000   0.2656
  -2.100  -0.2416   0.00903   0.00346   0.0052  1.0000  0.7382  -0.8971   0.0000   0.0000   0.0000   0.2692
  -2.000  -0.2327   0.00894   0.00344   0.0059  1.0000  0.7609  -0.8316   0.0000   0.0000   0.0000   0.2732
  -1.900  -0.2239   0.00885   0.00342   0.0067  1.0000  0.7837  -0.7969   0.0000   0.0000   0.0000   0.2779
  -1.800  -0.2151   0.00876   0.00340   0.0075  1.0000  0.8064  -0.7718   0.0000   0.0000   0.0000   0.2830
  -1.700  -0.2060   0.00869   0.00338   0.0084  1.0000  0.8293  -0.7470   0.0000   0.0000   0.0000   0.2885
  -1.600  -0.1964   0.00863   0.00332   0.0091  1.0000  0.8526  -0.7215   0.0000   0.0000   0.0000   0.2941
  -1.500  -0.1858   0.00858   0.00331   0.0096  1.0000  0.8764  -0.6949   0.0000   0.0000   0.0000   0.2994
  -1.400  -0.1725   0.00855   0.00330   0.0095  1.0000  0.8993  -0.6652   0.0000   0.0000   0.0000   0.3033
  -1.300  -0.1564   0.00853   0.00329   0.0089  1.0000  0.9219  -0.6321   0.0000   0.0000   0.0000   0.3046
  -1.200  -0.1368   0.00852   0.00327   0.0074  1.0000  0.9423  -0.5953   0.0000   0.0000   0.0000   0.3021
  -1.100  -0.1148   0.00851   0.00324   0.0054  1.0000  0.9599  -0.5580   0.0000   0.0000   0.0000   0.2947
  -1.000  -0.0917   0.00849   0.00319   0.0030  1.0000  0.9747  -0.5224   0.0000   0.0000   0.0000   0.2806
  -0.900  -0.0680   0.00847   0.00314   0.0005  1.0000  0.9877  -0.4866   0.0000   0.0000   0.0000   0.2540
  -0.800  -0.0422   0.00844   0.00308  -0.0026  1.0000  0.9988  -0.4492   0.0000   0.0000   0.0000   0.1851
  -0.700  -0.0326   0.00839   0.00302  -0.0026  1.0000  1.0000  -0.4295   0.0000   0.0000   0.0000   0.1663
  -0.600  -0.0248   0.00835   0.00297  -0.0023  1.0000  1.0000  -0.4128   0.0000   0.0000   0.0000   0.1553
  -0.500  -0.0169   0.00833   0.00293  -0.0019  1.0000  1.0000  -0.3986   0.0000   0.0000   0.0000   0.1343
  -0.400  -0.0089   0.00831   0.00291  -0.0015  1.0000  1.0000  -0.3845   0.0000   0.0000   0.0000   0.0789
  -0.300  -0.0011   0.00830   0.00288  -0.0011  1.0000  1.0000  -0.3890   0.0000   0.0000   0.0000  -0.7765
  -0.200   0.0067   0.00830   0.00288  -0.0006  1.0000  1.0000  -0.4006   0.0000   0.0000   0.0000   0.3473
  -0.100   0.0143   0.00831   0.00290  -0.0002  1.0000  1.0000  -0.4119   0.0000   0.0000   0.0000   0.2641
   0.000   0.0246   0.00833   0.00292  -0.0003  0.9974  1.0000  -0.4252   0.0000   0.0000   0.0000   0.2624
   0.100   0.0503   0.00836   0.00294  -0.0034  0.9763  1.0000  -0.4504   0.0000   0.0000   0.0000   0.3157
   0.200   0.0750   0.00838   0.00296  -0.0061  0.9522  1.0000  -0.4765   0.0000   0.0000   0.0000   0.3299
   0.300   0.0976   0.00840   0.00295  -0.0083  0.9244  1.0000  -0.5020   0.0000   0.0000   0.0000   0.3333
   0.500   0.1287   0.00848   0.00291  -0.0094  0.8640  1.0000  -0.5422   0.0000   0.0000   0.0000   0.3216
   0.600   0.1391   0.00856   0.00289  -0.0089  0.8367  1.0000  -0.5583   0.0000   0.0000   0.0000   0.3124
   0.700   0.1486   0.00864   0.00288  -0.0083  0.8110  1.0000  -0.5737   0.0000   0.0000   0.0000   0.3040
   0.800   0.1577   0.00873   0.00288  -0.0076  0.7875  1.0000  -0.5887   0.0000   0.0000   0.0000   0.2962
   0.900   0.1666   0.00883   0.00288  -0.0069  0.7656  1.0000  -0.6038   0.0000   0.0000   0.0000   0.2894
   1.000   0.1756   0.00893   0.00288  -0.0062  0.7451  1.0000  -0.6204   0.0000   0.0000   0.0000   0.2835
   1.100   0.1847   0.00904   0.00289  -0.0056  0.7257  1.0000  -0.6372   0.0000   0.0000   0.0000   0.2784
   1.200   0.1939   0.00915   0.00290  -0.0050  0.7067  1.0000  -0.6541   0.0000   0.0000   0.0000   0.2740
   1.300   0.2034   0.00925   0.00294  -0.0046  0.6881  1.0000  -0.6725   0.0000   0.0000   0.0000   0.2704
   1.400   0.2128   0.00936   0.00296  -0.0041  0.6705  1.0000  -0.6918   0.0000   0.0000   0.0000   0.2672
   1.500   0.2222   0.00949   0.00297  -0.0036  0.6536  1.0000  -0.7132   0.0000   0.0000   0.0000   0.2640
   1.600   0.2320   0.00958   0.00300  -0.0032  0.6355  1.0000  -0.7351   0.0000   0.0000   0.0000   0.2617
   1.700   0.2418   0.00969   0.00302  -0.0028  0.6187  1.0000  -0.7572   0.0000   0.0000   0.0000   0.2595
   1.800   0.2513   0.00982   0.00304  -0.0024  0.6028  1.0000  -0.7792   0.0000   0.0000   0.0000   0.2573
   1.900   0.2614   0.00990   0.00308  -0.0021  0.5859  1.0000  -0.8017   0.0000   0.0000   0.0000   0.2558
   2.000   0.2712   0.01002   0.00311  -0.0018  0.5707  1.0000  -0.8255   0.0000   0.0000   0.0000   0.2542
   2.100   0.2812   0.01014   0.00314  -0.0014  0.5550  1.0000  -0.8510   0.0000   0.0000   0.0000   0.2528
   2.200   0.2912   0.01024   0.00319  -0.0012  0.5400  1.0000  -0.8767   0.0000   0.0000   0.0000   0.2516
   2.300   0.3011   0.01037   0.00323  -0.0008  0.5258  1.0000  -0.9025   0.0000   0.0000   0.0000   0.2504
   2.400   0.3114   0.01047   0.00329  -0.0006  0.5113  1.0000  -0.9287   0.0000   0.0000   0.0000   0.2495
   2.500   0.3213   0.01062   0.00333  -0.0003  0.4983  1.0000  -0.9548   0.0000   0.0000   0.0000   0.2484
   2.600   0.3317   0.01071   0.00340  -0.0001  0.4842  1.0000  -0.9814   0.0000   0.0000   0.0000   0.2478
   2.700   0.3417   0.01087   0.00345   0.0002  0.4719  1.0000  -1.0079   0.0000   0.0000   0.0000   0.2469
   2.800   0.3522   0.01096   0.00353   0.0003  0.4584  1.0000  -1.0348   0.0000   0.0000   0.0000   0.2464
   2.900   0.3622   0.01111   0.00359   0.0006  0.4465  1.0000  -1.0616   0.0000   0.0000   0.0000   0.2456
   3.000   0.3727   0.01122   0.00375   0.0008  0.4335  1.0000  -1.0888   0.0000   0.0000   0.0000   0.2452
   3.100   0.3828   0.01137   0.00382   0.0010  0.4219  1.0000  -1.1182   0.0000   0.0000   0.0000   0.2446
   3.200   0.3932   0.01149   0.00392   0.0012  0.4100  1.0000  -1.1495   0.0000   0.0000   0.0000   0.2442
   3.300   0.4035   0.01162   0.00400   0.0014  0.3985  1.0000  -1.1814   0.0000   0.0000   0.0000   0.2437
   3.400   0.4138   0.01177   0.00411   0.0016  0.3876  1.0000  -1.2177   0.0000   0.0000   0.0000   0.2433
   3.500   0.4242   0.01189   0.00420   0.0017  0.3760  1.0000  -1.2597   0.0000   0.0000   0.0000   0.2429
   3.600   0.4343   0.01208   0.00430   0.0019  0.3656  1.0000  -1.3021   0.0000   0.0000   0.0000   0.2425
   3.700   0.4449   0.01217   0.00441   0.0021  0.3540  1.0000  -1.3455   0.0000   0.0000   0.0000   0.2422
   3.800   0.4549   0.01238   0.00451   0.0023  0.3441  1.0000  -1.3886   0.0000   0.0000   0.0000   0.2418
   3.900   0.4655   0.01248   0.00464   0.0024  0.3331  1.0000  -1.4327   0.0000   0.0000   0.0000   0.2415
   4.000   0.4757   0.01264   0.00474   0.0026  0.3229  1.0000  -1.4768   0.0000   0.0000   0.0000   0.2412
   4.100   0.4861   0.01280   0.00488   0.0027  0.3128  1.0000  -1.5212   0.0000   0.0000   0.0000   0.2409
   4.200   0.4965   0.01293   0.00499   0.0029  0.3026  1.0000  -1.5718   0.0000   0.0000   0.0000   0.2407
   4.300   0.5066   0.01315   0.00513   0.0031  0.2936  1.0000  -1.6241   0.0000   0.0000   0.0000   0.2404
   4.400   0.5172   0.01326   0.00528   0.0032  0.2835  1.0000  -1.6778   0.0000   0.0000   0.0000   0.2402
   4.500   0.5273   0.01346   0.00540   0.0034  0.2746  1.0000  -1.7314   0.0000   0.0000   0.0000   0.2399
   4.600   0.5378   0.01362   0.00564   0.0035  0.2654  1.0000  -1.7857   0.0000   0.0000   0.0000   0.2397
   4.700   0.5482   0.01377   0.00577   0.0037  0.2564  1.0000  -1.8404   0.0000   0.0000   0.0000   0.2395
   4.800   0.5583   0.01402   0.00595   0.0038  0.2480  1.0000  -1.8943   0.0000   0.0000   0.0000   0.2392
   4.900   0.5689   0.01414   0.00612   0.0040  0.2388  1.0000  -1.9496   0.0000   0.0000   0.0000   0.2391
   5.000   0.5789   0.01437   0.00627   0.0041  0.2307  1.0000  -2.0048   0.0000   0.0000   0.0000   0.2388
   5.100   0.5893   0.01457   0.00650   0.0043  0.2224  1.0000  -2.0595   0.0000   0.0000   0.0000   0.2386
   5.200   0.5997   0.01474   0.00667   0.0044  0.2144  1.0000  -2.1154   0.0000   0.0000   0.0000   0.2384
   5.300   0.6096   0.01506   0.00690   0.0046  0.2068  1.0000  -2.1701   0.0000   0.0000   0.0000   0.2382
   5.400   0.6202   0.01519   0.00711   0.0047  0.1986  1.0000  -2.2261   0.0000   0.0000   0.0000   0.2380
   5.500   0.6302   0.01541   0.00728   0.0049  0.1910  1.0000  -2.2829   0.0000   0.0000   0.0000   0.2378
   5.600   0.6404   0.01568   0.00755   0.0050  0.1831  1.0000  -2.3377   0.0000   0.0000   0.0000   0.2376
   5.700   0.6507   0.01585   0.00774   0.0052  0.1752  1.0000  -2.3947   0.0000   0.0000   0.0000   0.2375
   5.800   0.6603   0.01624   0.00802   0.0053  0.1681  1.0000  -2.4496   0.0000   0.0000   0.0000   0.2373
   5.900   0.6709   0.01638   0.00826   0.0055  0.1604  1.0000  -2.5397   0.0000   0.0000   0.0000   0.2371
   6.000   0.6808   0.01661   0.00845   0.0056  0.1535  1.0000  -2.6480   0.0000   0.0000   0.0000   0.2369
   6.100   0.6908   0.01694   0.00879   0.0058  0.1466  1.0000  -2.7530   0.0000   0.0000   0.0000   0.2367
   6.200   0.7011   0.01714   0.00907   0.0059  0.1396  1.0000  -2.8697   0.0000   0.0000   0.0000   0.2365
   6.300   0.7104   0.01761   0.00941   0.0061  0.1333  1.0000  -2.9791   0.0000   0.0000   0.0000   0.2363
   6.400   0.7210   0.01775   0.00969   0.0062  0.1268  1.0000  -3.0916   0.0000   0.0000   0.0000   0.2361
   6.500   0.7309   0.01799   0.00991   0.0064  0.1209  1.0000  -3.2063   0.0000   0.0000   0.0000   0.2360
   6.600   0.7403   0.01852   0.01039   0.0066  0.1156  1.0000  -3.3120   0.0000   0.0000   0.0000   0.2357
   6.700   0.7506   0.01879   0.01076   0.0068  0.1101  1.0000  -3.4222   0.0000   0.0000   0.0000   0.2355
   6.800   0.7603   0.01911   0.01104   0.0069  0.1051  1.0000  -3.5369   0.0000   0.0000   0.0000   0.2353
   6.900   0.7696   0.01969   0.01160   0.0071  0.1003  1.0000  -3.6421   0.0000   0.0000   0.0000   0.2351
   7.000   0.7798   0.01995   0.01196   0.0073  0.0951  1.0000  -3.7550   0.0000   0.0000   0.0000   0.2348
   7.100   0.7894   0.02024   0.01222   0.0075  0.0906  1.0000  -3.8742   0.0000   0.0000   0.0000   0.2347
   7.200   0.7985   0.02092   0.01286   0.0077  0.0865  1.0000  -3.9792   0.0000   0.0000   0.0000   0.2345
   7.300   0.8085   0.02129   0.01337   0.0079  0.0828  1.0000  -4.0867   0.0000   0.0000   0.0000   0.2342
   7.400   0.8182   0.02171   0.01381   0.0081  0.0795  1.0000  -4.1988   0.0000   0.0000   0.0000   0.2339
   7.500   0.8276   0.02219   0.01425   0.0083  0.0768  1.0000  -4.3137   0.0000   0.0000   0.0000   0.2337
   7.600   0.8363   0.02322   0.01525   0.0085  0.0742  1.0000  -4.4088   0.0000   0.0000   0.0000   0.2335
   7.700   0.8462   0.02371   0.01590   0.0088  0.0721  1.0000  -4.5105   0.0000   0.0000   0.0000   0.2332
   7.800   0.8558   0.02430   0.01661   0.0091  0.0699  1.0000  -4.6116   0.0000   0.0000   0.0000   0.2329
   7.900   0.8652   0.02488   0.01727   0.0093  0.0679  1.0000  -4.7166   0.0000   0.0000   0.0000   0.2326
   8.000   0.8746   0.02537   0.01783   0.0095  0.0659  1.0000  -4.8260   0.0000   0.0000   0.0000   0.2324
   8.100   0.8836   0.02601   0.01841   0.0096  0.0639  1.0000  -4.9428   0.0000   0.0000   0.0000   0.2323
   8.200   0.8916   0.02726   0.01972   0.0098  0.0620  1.0000  -5.0285   0.0000   0.0000   0.0000   0.2321
   8.300   0.9007   0.02768   0.02035   0.0101  0.0602  1.0000  -5.1304   0.0000   0.0000   0.0000   0.2318
   8.400   0.9096   0.02833   0.02115   0.0104  0.0585  1.0000  -5.2275   0.0000   0.0000   0.0000   0.2315
   8.500   0.9182   0.02911   0.02205   0.0106  0.0571  1.0000  -5.3210   0.0000   0.0000   0.0000   0.2312
   8.600   0.9267   0.02987   0.02292   0.0109  0.0558  1.0000  -5.4161   0.0000   0.0000   0.0000   0.2310
   8.700   0.9351   0.03061   0.02373   0.0111  0.0546  1.0000  -5.5156   0.0000   0.0000   0.0000   0.2308
   8.800   0.9434   0.03140   0.02456   0.0113  0.0534  1.0000  -5.6173   0.0000   0.0000   0.0000   0.2306
   8.900   0.9509   0.03262   0.02580   0.0114  0.0523  1.0000  -5.7032   0.0000   0.0000   0.0000   0.2304
   9.000   0.9555   0.03486   0.02819   0.0116  0.0513  1.0000  -5.7308   0.0000   0.0000   0.0000   0.2302
   9.100   0.9622   0.03552   0.02914   0.0119  0.0502  1.0000  -5.7928   0.0000   0.0000   0.0000   0.2299
   9.200   0.9684   0.03635   0.03024   0.0122  0.0485  1.0000  -5.8516   0.0000   0.0000   0.0000   0.2296
   9.300   0.9754   0.03692   0.03094   0.0124  0.0464  1.0000  -5.9418   0.0000   0.0000   0.0000   0.2294
   9.400   0.9836   0.03724   0.03126   0.0125  0.0445  1.0000  -6.0612   0.0000   0.0000   0.0000   0.2292
   9.500   0.9907   0.03793   0.03197   0.0127  0.0432  1.0000  -6.1580   0.0000   0.0000   0.0000   0.2290
   9.600   0.9962   0.03934   0.03333   0.0127  0.0419  1.0000  -6.2359   0.0000   0.0000   0.0000   0.2289
   9.700   0.9967   0.04144   0.03569   0.0128  0.0408  1.0000  -6.2166   0.0000   0.0000   0.0000   0.2287
   9.800   0.9989   0.04249   0.03708   0.0130  0.0393  1.0000  -6.2203   0.0000   0.0000   0.0000   0.2285
   9.900   1.0031   0.04319   0.03795   0.0131  0.0371  1.0000  -6.2738   0.0000   0.0000   0.0000   0.2283
  10.000   1.0186   0.04131   0.03578   0.0132  0.0339  1.0000  -6.5739   0.0000   0.0000   0.0000   0.2282
  10.100   1.0206   0.04319   0.03760   0.0132  0.0325  1.0000  -6.6237   0.0000   0.0000   0.0000   0.2282
  10.200   1.0194   0.04481   0.03952   0.0133  0.0318  1.0000  -6.5815   0.0000   0.0000   0.0000   0.2280
  10.300   1.0170   0.04666   0.04166   0.0132  0.0311  1.0000  -6.5242   0.0000   0.0000   0.0000   0.2279
  10.400   1.0132   0.04869   0.04392   0.0130  0.0306  1.0000  -6.4631   0.0000   0.0000   0.0000   0.2279
  10.500   1.0082   0.05076   0.04619   0.0127  0.0302  1.0000  -6.4036   0.0000   0.0000   0.0000   0.2281
  10.600   1.0022   0.05285   0.04845   0.0122  0.0300  1.0000  -6.3455   0.0000   0.0000   0.0000   0.2285
  10.700   0.9948   0.05483   0.05056   0.0116  0.0299  1.0000  -6.2911   0.0000   0.0000   0.0000   0.2288
  10.800   0.9866   0.05688   0.05272   0.0107  0.0300  1.0000  -6.2381   0.0000   0.0000   0.0000   0.2296
  10.900   0.9784   0.05918   0.05510   0.0090  0.0302  1.0000  -6.1835   0.0000   0.0000   0.0000   0.2311
  11.000   0.9704   0.06173   0.05769   0.0067  0.0304  1.0000  -6.1274   0.0000   0.0000   0.0000   0.2333
  11.100   0.9624   0.06457   0.06060   0.0040  0.0307  1.0000  -6.0664   0.0000   0.0000   0.0000   0.2359
  11.200   0.9545   0.06762   0.06371   0.0011  0.0310  1.0000  -6.0021   0.0000   0.0000   0.0000   0.2387
  11.300   0.9468   0.07083   0.06696  -0.0017  0.0313  1.0000  -5.9344   0.0000   0.0000   0.0000   0.2416
  11.400   0.9390   0.07412   0.07028  -0.0045  0.0316  1.0000  -5.8639   0.0000   0.0000   0.0000   0.2445
  11.500   0.9313   0.07748   0.07367  -0.0072  0.0318  1.0000  -5.7894   0.0000   0.0000   0.0000   0.2473
  11.600   0.9235   0.08090   0.07710  -0.0096  0.0321  1.0000  -5.7099   0.0000   0.0000   0.0000   0.2500
  11.700   0.9157   0.08437   0.08058  -0.0120  0.0323  1.0000  -5.6246   0.0000   0.0000   0.0000   0.2525
  11.800   0.7784   0.13771   0.13380  -0.0382  0.0874  1.0000  -2.7966   0.0000   0.0000   0.0000   0.2913
  11.900   0.7730   0.14002   0.13608  -0.0407  0.0871  1.0000  -2.7140   0.0000   0.0000   0.0000   0.2949
  12.000   0.7665   0.14230   0.13833  -0.0434  0.0866  1.0000  -2.6202   0.0000   0.0000   0.0000   0.2989
  12.100   0.7599   0.14452   0.14052  -0.0463  0.0857  1.0000  -2.5234   0.0000   0.0000   0.0000   0.3031
  12.200   0.7551   0.14654   0.14251  -0.0485  0.0841  1.0000  -2.4515   0.0000   0.0000   0.0000   0.3064
  12.300   0.7541   0.14817   0.14414  -0.0497  0.0817  1.0000  -2.4283   0.0000   0.0000   0.0000   0.3080
  12.400   0.7570   0.14941   0.14538  -0.0499  0.0792  1.0000  -2.4517   0.0000   0.0000   0.0000   0.3079
  12.500   0.7614   0.15067   0.14666  -0.0497  0.0778  1.0000  -2.4868   0.0000   0.0000   0.0000   0.3071
  12.600   0.7727   0.15144   0.14747  -0.0476  0.0761  1.0000  -2.5961   0.0000   0.0000   0.0000   0.3033
  12.700   0.7874   0.15434   0.15042  -0.0430  0.0745  1.0000  -2.7323   0.0000   0.0000   0.0000   0.2961
  12.800   0.7842   0.15653   0.15260  -0.0449  0.0744  1.0000  -2.6645   0.0000   0.0000   0.0000   0.2987
  12.900   0.7806   0.15862   0.15466  -0.0470  0.0742  1.0000  -2.5923   0.0000   0.0000   0.0000   0.3017
  13.000   0.7761   0.16060   0.15662  -0.0495  0.0739  1.0000  -2.5101   0.0000   0.0000   0.0000   0.3052
  13.100   0.7700   0.16247   0.15846  -0.0524  0.0733  1.0000  -2.4144   0.0000   0.0000   0.0000   0.3095
  13.200   0.7645   0.16407   0.16003  -0.0549  0.0721  1.0000  -2.3319   0.0000   0.0000   0.0000   0.3133
  13.300   0.7629   0.16578   0.16174  -0.0564  0.0705  1.0000  -2.2832   0.0000   0.0000   0.0000   0.3153
  13.400   0.7635   0.16743   0.16338  -0.0573  0.0688  1.0000  -2.2575   0.0000   0.0000   0.0000   0.3163
  13.500   0.7662   0.16877   0.16472  -0.0576  0.0666  1.0000  -2.2599   0.0000   0.0000   0.0000   0.3163
  13.600   0.7833   0.17036   0.16635  -0.0531  0.0620  1.0000  -2.4261   0.0000   0.0000   0.0000   0.3087
  13.700   0.7796   0.17224   0.16821  -0.0554  0.0616  1.0000  -2.3453   0.0000   0.0000   0.0000   0.3119
  13.800   0.7750   0.17381   0.16977  -0.0577  0.0611  1.0000  -2.2663   0.0000   0.0000   0.0000   0.3152
  13.900   0.7719   0.17549   0.17143  -0.0598  0.0598  1.0000  -2.1920   0.0000   0.0000   0.0000   0.3183
  14.000   0.7718   0.17723   0.17315  -0.0611  0.0581  1.0000  -2.1484   0.0000   0.0000   0.0000   0.3199
  14.100   0.7734   0.17885   0.17477  -0.0618  0.0565  1.0000  -2.1252   0.0000   0.0000   0.0000   0.3206
  14.200   0.7759   0.18033   0.17626  -0.0622  0.0551  1.0000  -2.1163   0.0000   0.0000   0.0000   0.3208
  14.300   0.7795   0.18170   0.17764  -0.0623  0.0539  1.0000  -2.1244   0.0000   0.0000   0.0000   0.3203
  14.400   0.7855   0.18302   0.17897  -0.0616  0.0529  1.0000  -2.1625   0.0000   0.0000   0.0000   0.3187
  14.500   0.8029   0.18671   0.18273  -0.0565  0.0514  1.0000  -2.3378   0.0000   0.0000   0.0000   0.3105
  14.600   0.8028   0.18870   0.18471  -0.0579  0.0513  1.0000  -2.2909   0.0000   0.0000   0.0000   0.3121
  14.700   0.8027   0.19061   0.18661  -0.0592  0.0512  1.0000  -2.2431   0.0000   0.0000   0.0000   0.3137
  14.800   0.8023   0.19241   0.18840  -0.0607  0.0512  1.0000  -2.1934   0.0000   0.0000   0.0000   0.3155
  14.900   0.8013   0.19406   0.19003  -0.0624  0.0510  1.0000  -2.1376   0.0000   0.0000   0.0000   0.3177
  15.000   0.7993   0.19546   0.19142  -0.0643  0.0508  1.0000  -2.0742   0.0000   0.0000   0.0000   0.3202


