xflr5 v6.61

 Calculated polar for: S8025 (8%)

 1 1 Reynolds number fixed          Mach number fixed         

 xtrf =   1.000 (top)        1.000 (bottom)
 Mach =   0.000     Re =     0.100 e 6     Ncrit =   9.000

  alpha     CL        CD       CDp       Cm    Top Xtr Bot Xtr   Cpmin    Chinge    XCp    
 ------- -------- --------- --------- -------- ------- ------- -------- --------- ---------
 -10.000  -0.6885   0.12218   0.11743   0.0292  1.0000  0.0853  -1.9393   0.0000   0.0000   0.0000   0.2876
  -9.900  -0.6811   0.12031   0.11555   0.0307  1.0000  0.0859  -1.8941   0.0000   0.0000   0.0000   0.2902
  -9.800  -0.6758   0.11868   0.11391   0.0315  1.0000  0.0866  -1.8657   0.0000   0.0000   0.0000   0.2918
  -9.700  -0.6718   0.11710   0.11234   0.0317  1.0000  0.0873  -1.8486   0.0000   0.0000   0.0000   0.2925
  -9.600  -0.6689   0.11553   0.11077   0.0317  1.0000  0.0880  -1.8397   0.0000   0.0000   0.0000   0.2927
  -9.500  -0.6667   0.11394   0.10919   0.0314  1.0000  0.0887  -1.8372   0.0000   0.0000   0.0000   0.2926
  -9.400  -0.6651   0.11232   0.10758   0.0310  1.0000  0.0895  -1.8395   0.0000   0.0000   0.0000   0.2921
  -9.300  -0.6639   0.11067   0.10594   0.0304  1.0000  0.0902  -1.8456   0.0000   0.0000   0.0000   0.2913
  -9.200  -0.6632   0.10898   0.10427   0.0297  1.0000  0.0910  -1.8552   0.0000   0.0000   0.0000   0.2904
  -9.100  -0.6629   0.10727   0.10256   0.0289  1.0000  0.0918  -1.8677   0.0000   0.0000   0.0000   0.2892
  -9.000  -0.6630   0.10551   0.10083   0.0280  1.0000  0.0926  -1.8831   0.0000   0.0000   0.0000   0.2879
  -8.900  -0.6636   0.10372   0.09905   0.0269  1.0000  0.0935  -1.9022   0.0000   0.0000   0.0000   0.2862
  -8.800  -0.6648   0.10186   0.09721   0.0255  1.0000  0.0945  -1.9265   0.0000   0.0000   0.0000   0.2841
  -8.200  -0.6944   0.07846   0.07391   0.0047  1.0000  0.0558  -2.5959   0.0000   0.0000   0.0000   0.2524
  -8.100  -0.7112   0.06933   0.06457  -0.0039  1.0000  0.0461  -2.9931   0.0000   0.0000   0.0000   0.2399
  -8.000  -0.7093   0.06761   0.06286  -0.0041  1.0000  0.0450  -2.9834   0.0000   0.0000   0.0000   0.2397
  -7.900  -0.7098   0.06522   0.06043  -0.0052  1.0000  0.0439  -3.0164   0.0000   0.0000   0.0000   0.2382
  -7.800  -0.7330   0.05633   0.05073  -0.0110  1.0000  0.0378  -3.5687   0.0000   0.0000   0.0000   0.2302
  -7.700  -0.7265   0.05464   0.04906  -0.0109  1.0000  0.0370  -3.5390   0.0000   0.0000   0.0000   0.2303
  -7.600  -0.7234   0.05256   0.04694  -0.0111  1.0000  0.0365  -3.5387   0.0000   0.0000   0.0000   0.2300
  -7.500  -0.7203   0.05050   0.04479  -0.0114  1.0000  0.0360  -3.5485   0.0000   0.0000   0.0000   0.2296
  -7.400  -0.7169   0.04842   0.04258  -0.0116  1.0000  0.0354  -3.5660   0.0000   0.0000   0.0000   0.2292
  -7.300  -0.7133   0.04631   0.04031  -0.0118  1.0000  0.0348  -3.5906   0.0000   0.0000   0.0000   0.2288
  -7.200  -0.7092   0.04416   0.03798  -0.0120  1.0000  0.0342  -3.6221   0.0000   0.0000   0.0000   0.2285
  -7.100  -0.7046   0.04199   0.03559  -0.0121  1.0000  0.0336  -3.6598   0.0000   0.0000   0.0000   0.2283
  -7.000  -0.6995   0.03983   0.03317  -0.0120  1.0000  0.0330  -3.7023   0.0000   0.0000   0.0000   0.2283
  -6.900  -0.6937   0.03773   0.03079  -0.0119  1.0000  0.0325  -3.7461   0.0000   0.0000   0.0000   0.2283
  -6.800  -0.6872   0.03577   0.02854  -0.0117  1.0000  0.0321  -3.7858   0.0000   0.0000   0.0000   0.2285
  -6.700  -0.6799   0.03399   0.02648  -0.0114  1.0000  0.0318  -3.8150   0.0000   0.0000   0.0000   0.2288
  -6.600  -0.6719   0.03243   0.02466  -0.0111  1.0000  0.0317  -3.8297   0.0000   0.0000   0.0000   0.2291
  -6.500  -0.6634   0.03104   0.02306  -0.0107  1.0000  0.0318  -3.8309   0.0000   0.0000   0.0000   0.2294
  -6.400  -0.6545   0.02980   0.02163  -0.0104  1.0000  0.0321  -3.8220   0.0000   0.0000   0.0000   0.2297
  -6.300  -0.6453   0.02866   0.02032  -0.0101  1.0000  0.0325  -3.8069   0.0000   0.0000   0.0000   0.2300
  -6.200  -0.6358   0.02759   0.01910  -0.0097  1.0000  0.0331  -3.7888   0.0000   0.0000   0.0000   0.2304
  -6.100  -0.6261   0.02659   0.01796  -0.0093  1.0000  0.0339  -3.7702   0.0000   0.0000   0.0000   0.2308
  -6.000  -0.6162   0.02564   0.01686  -0.0090  1.0000  0.0350  -3.7530   0.0000   0.0000   0.0000   0.2312
  -5.900  -0.6059   0.02498   0.01602  -0.0086  1.0000  0.0369  -3.7248   0.0000   0.0000   0.0000   0.2317
  -5.800  -0.5972   0.02403   0.01511  -0.0084  1.0000  0.0398  -3.6624   0.0000   0.0000   0.0000   0.2318
  -5.700  -0.5876   0.02380   0.01487  -0.0084  1.0000  0.0442  -3.5685   0.0000   0.0000   0.0000   0.2317
  -5.600  -0.5773   0.02320   0.01411  -0.0080  1.0000  0.0483  -3.5350   0.0000   0.0000   0.0000   0.2321
  -5.500  -0.5683   0.02240   0.01343  -0.0078  1.0000  0.0524  -3.4767   0.0000   0.0000   0.0000   0.2323
  -5.400  -0.5580   0.02166   0.01260  -0.0074  1.0000  0.0567  -3.4658   0.0000   0.0000   0.0000   0.2329
  -5.300  -0.5487   0.02061   0.01160  -0.0069  1.0000  0.0623  -3.4622   0.0000   0.0000   0.0000   0.2336
  -5.200  -0.5391   0.01971   0.01073  -0.0064  1.0000  0.0732  -3.4706   0.0000   0.0000   0.0000   0.2344
  -5.100  -0.5299   0.01919   0.01029  -0.0062  1.0000  0.0921  -3.4152   0.0000   0.0000   0.0000   0.2345
  -5.000  -0.5207   0.01858   0.00974  -0.0060  1.0000  0.1171  -3.3767   0.0000   0.0000   0.0000   0.2350
  -4.900  -0.5115   0.01815   0.00943  -0.0058  1.0000  0.1370  -3.2938   0.0000   0.0000   0.0000   0.2352
  -4.800  -0.5018   0.01777   0.00909  -0.0056  1.0000  0.1544  -3.2008   0.0000   0.0000   0.0000   0.2355
  -4.700  -0.4920   0.01741   0.00875  -0.0053  1.0000  0.1706  -3.1030   0.0000   0.0000   0.0000   0.2358
  -4.600  -0.4819   0.01713   0.00845  -0.0051  1.0000  0.1867  -3.0009   0.0000   0.0000   0.0000   0.2361
  -4.500  -0.4724   0.01667   0.00812  -0.0048  1.0000  0.2017  -2.8985   0.0000   0.0000   0.0000   0.2365
  -4.400  -0.4628   0.01624   0.00779  -0.0045  1.0000  0.2178  -2.7962   0.0000   0.0000   0.0000   0.2370
  -4.300  -0.4530   0.01584   0.00745  -0.0043  1.0000  0.2352  -2.6943   0.0000   0.0000   0.0000   0.2374
  -4.200  -0.4431   0.01545   0.00713  -0.0040  1.0000  0.2542  -2.5921   0.0000   0.0000   0.0000   0.2379
  -4.100  -0.4334   0.01509   0.00684  -0.0037  1.0000  0.2751  -2.4888   0.0000   0.0000   0.0000   0.2384
  -4.000  -0.4237   0.01474   0.00659  -0.0034  1.0000  0.2977  -2.3855   0.0000   0.0000   0.0000   0.2390
  -3.900  -0.4142   0.01438   0.00636  -0.0031  1.0000  0.3219  -2.2827   0.0000   0.0000   0.0000   0.2396
  -3.800  -0.4048   0.01403   0.00615  -0.0027  1.0000  0.3474  -2.1952   0.0000   0.0000   0.0000   0.2404
  -3.700  -0.3955   0.01370   0.00596  -0.0023  1.0000  0.3745  -2.1141   0.0000   0.0000   0.0000   0.2413
  -3.600  -0.3862   0.01340   0.00580  -0.0019  1.0000  0.4033  -2.0332   0.0000   0.0000   0.0000   0.2422
  -3.500  -0.3770   0.01311   0.00566  -0.0015  1.0000  0.4338  -1.9523   0.0000   0.0000   0.0000   0.2434
  -3.400  -0.3678   0.01285   0.00554  -0.0010  1.0000  0.4659  -1.8709   0.0000   0.0000   0.0000   0.2447
  -3.300  -0.3586   0.01262   0.00537  -0.0004  1.0000  0.4989  -1.7865   0.0000   0.0000   0.0000   0.2462
  -3.200  -0.3498   0.01239   0.00530   0.0002  1.0000  0.5303  -1.7090   0.0000   0.0000   0.0000   0.2481
  -3.100  -0.3409   0.01219   0.00523   0.0009  1.0000  0.5618  -1.6324   0.0000   0.0000   0.0000   0.2502
  -3.000  -0.3320   0.01200   0.00516   0.0017  1.0000  0.5927  -1.5566   0.0000   0.0000   0.0000   0.2525
  -2.900  -0.3232   0.01184   0.00509   0.0024  1.0000  0.6226  -1.4817   0.0000   0.0000   0.0000   0.2550
  -2.800  -0.3144   0.01169   0.00503   0.0032  1.0000  0.6516  -1.4079   0.0000   0.0000   0.0000   0.2577
  -2.700  -0.3056   0.01154   0.00497   0.0040  1.0000  0.6797  -1.3352   0.0000   0.0000   0.0000   0.2608
  -2.600  -0.2970   0.01141   0.00493   0.0049  1.0000  0.7064  -1.2638   0.0000   0.0000   0.0000   0.2643
  -2.500  -0.2885   0.01128   0.00488   0.0059  1.0000  0.7323  -1.1935   0.0000   0.0000   0.0000   0.2682
  -2.400  -0.2802   0.01117   0.00484   0.0070  1.0000  0.7578  -1.1249   0.0000   0.0000   0.0000   0.2726
  -2.300  -0.2718   0.01107   0.00481   0.0081  1.0000  0.7830  -1.0570   0.0000   0.0000   0.0000   0.2774
  -2.200  -0.2633   0.01098   0.00477   0.0091  1.0000  0.8081  -0.9899   0.0000   0.0000   0.0000   0.2825
  -2.100  -0.2545   0.01090   0.00474   0.0102  1.0000  0.8334  -0.9227   0.0000   0.0000   0.0000   0.2878
  -1.900  -0.2323   0.01079   0.00467   0.0114  1.0000  0.8834  -0.7989   0.0000   0.0000   0.0000   0.2970
  -1.800  -0.2168   0.01076   0.00463   0.0111  1.0000  0.9086  -0.7642   0.0000   0.0000   0.0000   0.2991
  -1.700  -0.1956   0.01075   0.00451   0.0096  1.0000  0.9316  -0.7238   0.0000   0.0000   0.0000   0.2968
  -1.600  -0.1713   0.01075   0.00444   0.0073  1.0000  0.9529  -0.6801   0.0000   0.0000   0.0000   0.2904
  -1.500  -0.1435   0.01073   0.00435   0.0042  1.0000  0.9702  -0.6328   0.0000   0.0000   0.0000   0.2767
  -1.400  -0.1129   0.01068   0.00422   0.0003  1.0000  0.9846  -0.5829   0.0000   0.0000   0.0000   0.2503
  -1.300  -0.0813   0.01060   0.00406  -0.0039  1.0000  0.9990  -0.5371   0.0000   0.0000   0.0000   0.1990
  -1.200  -0.0725   0.01049   0.00393  -0.0040  1.0000  1.0000  -0.5184   0.0000   0.0000   0.0000   0.1921
  -1.100  -0.0652   0.01040   0.00381  -0.0037  1.0000  1.0000  -0.5011   0.0000   0.0000   0.0000   0.1901
  -1.000  -0.0576   0.01033   0.00372  -0.0034  1.0000  1.0000  -0.4836   0.0000   0.0000   0.0000   0.1878
  -0.900  -0.0499   0.01027   0.00364  -0.0031  1.0000  1.0000  -0.4658   0.0000   0.0000   0.0000   0.1849
  -0.800  -0.0420   0.01022   0.00357  -0.0028  1.0000  1.0000  -0.4479   0.0000   0.0000   0.0000   0.1808
  -0.700  -0.0340   0.01018   0.00352  -0.0024  1.0000  1.0000  -0.4299   0.0000   0.0000   0.0000   0.1747
  -0.600  -0.0259   0.01015   0.00348  -0.0021  1.0000  1.0000  -0.4134   0.0000   0.0000   0.0000   0.1651
  -0.500  -0.0178   0.01013   0.00345  -0.0018  1.0000  1.0000  -0.3990   0.0000   0.0000   0.0000   0.1470
  -0.400  -0.0096   0.01012   0.00343  -0.0014  1.0000  1.0000  -0.3847   0.0000   0.0000   0.0000   0.0981
  -0.300  -0.0014   0.01011   0.00340  -0.0011  1.0000  1.0000  -0.3881   0.0000   0.0000   0.0000  -0.5196
  -0.200   0.0067   0.01011   0.00340  -0.0007  1.0000  1.0000  -0.3998   0.0000   0.0000   0.0000   0.3549
  -0.100   0.0148   0.01012   0.00341  -0.0003  1.0000  1.0000  -0.4115   0.0000   0.0000   0.0000   0.2723
   0.000   0.0227   0.01014   0.00343   0.0000  1.0000  1.0000  -0.4231   0.0000   0.0000   0.0000   0.2477
   0.100   0.0303   0.01016   0.00347   0.0004  1.0000  1.0000  -0.4343   0.0000   0.0000   0.0000   0.2354
   0.200   0.0375   0.01021   0.00352   0.0008  1.0000  1.0000  -0.4452   0.0000   0.0000   0.0000   0.2275
   0.300   0.0441   0.01027   0.00360   0.0011  1.0000  1.0000  -0.4554   0.0000   0.0000   0.0000   0.2217
   0.400   0.0570   0.01036   0.00371   0.0002  0.9949  1.0000  -0.4718   0.0000   0.0000   0.0000   0.2436
   0.500   0.0881   0.01041   0.00379  -0.0039  0.9751  1.0000  -0.5038   0.0000   0.0000   0.0000   0.2919
   0.600   0.1171   0.01045   0.00384  -0.0074  0.9527  1.0000  -0.5345   0.0000   0.0000   0.0000   0.3111
   0.700   0.1429   0.01048   0.00387  -0.0101  0.9268  1.0000  -0.5629   0.0000   0.0000   0.0000   0.3188
   0.800   0.1633   0.01051   0.00388  -0.0116  0.8983  1.0000  -0.5873   0.0000   0.0000   0.0000   0.3191
   0.900   0.1782   0.01058   0.00389  -0.0119  0.8700  1.0000  -0.6082   0.0000   0.0000   0.0000   0.3148
   1.000   0.1894   0.01066   0.00390  -0.0114  0.8433  1.0000  -0.6269   0.0000   0.0000   0.0000   0.3082
   1.100   0.1988   0.01077   0.00392  -0.0105  0.8190  1.0000  -0.6441   0.0000   0.0000   0.0000   0.3011
   1.200   0.2075   0.01088   0.00396  -0.0096  0.7955  1.0000  -0.6610   0.0000   0.0000   0.0000   0.2945
   1.300   0.2162   0.01100   0.00399  -0.0088  0.7738  1.0000  -0.6793   0.0000   0.0000   0.0000   0.2885
   1.400   0.2249   0.01112   0.00402  -0.0079  0.7530  1.0000  -0.6982   0.0000   0.0000   0.0000   0.2832
   1.500   0.2337   0.01125   0.00406  -0.0072  0.7324  1.0000  -0.7189   0.0000   0.0000   0.0000   0.2787
   1.600   0.2427   0.01138   0.00411  -0.0065  0.7126  1.0000  -0.7397   0.0000   0.0000   0.0000   0.2747
   1.700   0.2518   0.01152   0.00415  -0.0059  0.6939  1.0000  -0.7610   0.0000   0.0000   0.0000   0.2711
   1.800   0.2610   0.01167   0.00419  -0.0052  0.6768  1.0000  -0.7824   0.0000   0.0000   0.0000   0.2678
   1.900   0.2704   0.01180   0.00425  -0.0047  0.6585  1.0000  -0.8041   0.0000   0.0000   0.0000   0.2651
   2.000   0.2799   0.01193   0.00431  -0.0042  0.6406  1.0000  -0.8266   0.0000   0.0000   0.0000   0.2627
   2.100   0.2893   0.01209   0.00436  -0.0036  0.6246  1.0000  -0.8512   0.0000   0.0000   0.0000   0.2602
   2.200   0.2988   0.01222   0.00442  -0.0032  0.6075  1.0000  -0.8761   0.0000   0.0000   0.0000   0.2582
   2.300   0.3086   0.01236   0.00449  -0.0027  0.5910  1.0000  -0.9012   0.0000   0.0000   0.0000   0.2565
   2.400   0.3180   0.01253   0.00454  -0.0022  0.5767  1.0000  -0.9265   0.0000   0.0000   0.0000   0.2545
   2.500   0.3280   0.01265   0.00463  -0.0019  0.5598  1.0000  -0.9520   0.0000   0.0000   0.0000   0.2534
   2.600   0.3377   0.01281   0.00470  -0.0015  0.5457  1.0000  -0.9777   0.0000   0.0000   0.0000   0.2519
   2.700   0.3476   0.01295   0.00479  -0.0011  0.5302  1.0000  -1.0036   0.0000   0.0000   0.0000   0.2507
   2.800   0.3575   0.01311   0.00488  -0.0008  0.5164  1.0000  -1.0295   0.0000   0.0000   0.0000   0.2496
   2.900   0.3675   0.01326   0.00497  -0.0005  0.5024  1.0000  -1.0558   0.0000   0.0000   0.0000   0.2486
   3.000   0.3775   0.01343   0.00517  -0.0002  0.4887  1.0000  -1.0820   0.0000   0.0000   0.0000   0.2477
   3.100   0.3875   0.01359   0.00526   0.0002  0.4755  1.0000  -1.1117   0.0000   0.0000   0.0000   0.2468
   3.200   0.3976   0.01377   0.00539   0.0004  0.4624  1.0000  -1.1420   0.0000   0.0000   0.0000   0.2461
   3.300   0.4076   0.01393   0.00550   0.0007  0.4498  1.0000  -1.1738   0.0000   0.0000   0.0000   0.2454
   3.400   0.4177   0.01412   0.00564   0.0010  0.4375  1.0000  -1.2090   0.0000   0.0000   0.0000   0.2447
   3.500   0.4278   0.01428   0.00576   0.0013  0.4250  1.0000  -1.2484   0.0000   0.0000   0.0000   0.2441
   3.600   0.4379   0.01450   0.00591   0.0015  0.4135  1.0000  -1.2899   0.0000   0.0000   0.0000   0.2435
   3.700   0.4481   0.01465   0.00605   0.0017  0.4012  1.0000  -1.3319   0.0000   0.0000   0.0000   0.2431
   3.800   0.4581   0.01489   0.00620   0.0020  0.3908  1.0000  -1.3740   0.0000   0.0000   0.0000   0.2425
   3.900   0.4685   0.01504   0.00637   0.0022  0.3784  1.0000  -1.4164   0.0000   0.0000   0.0000   0.2421
   4.000   0.4783   0.01530   0.00650   0.0025  0.3684  1.0000  -1.4595   0.0000   0.0000   0.0000   0.2415
   4.100   0.4888   0.01545   0.00671   0.0027  0.3562  1.0000  -1.5022   0.0000   0.0000   0.0000   0.2412
   4.200   0.4988   0.01566   0.00683   0.0029  0.3460  1.0000  -1.5464   0.0000   0.0000   0.0000   0.2408
   4.300   0.5091   0.01588   0.00707   0.0031  0.3351  1.0000  -1.5969   0.0000   0.0000   0.0000   0.2405
   4.400   0.5192   0.01606   0.00721   0.0033  0.3246  1.0000  -1.6489   0.0000   0.0000   0.0000   0.2401
   4.500   0.5292   0.01632   0.00743   0.0036  0.3147  1.0000  -1.7003   0.0000   0.0000   0.0000   0.2397
   4.600   0.5395   0.01650   0.00769   0.0038  0.3039  1.0000  -1.7527   0.0000   0.0000   0.0000   0.2394
   4.700   0.5493   0.01682   0.00787   0.0040  0.2953  1.0000  -1.8055   0.0000   0.0000   0.0000   0.2390
   4.800   0.5598   0.01698   0.00814   0.0042  0.2846  1.0000  -1.8570   0.0000   0.0000   0.0000   0.2388
   4.900   0.5698   0.01721   0.00830   0.0044  0.2756  1.0000  -1.9107   0.0000   0.0000   0.0000   0.2385
   5.000   0.5800   0.01750   0.00861   0.0046  0.2662  1.0000  -1.9624   0.0000   0.0000   0.0000   0.2382
   5.100   0.5902   0.01771   0.00882   0.0048  0.2569  1.0000  -2.0156   0.0000   0.0000   0.0000   0.2379
   5.200   0.6001   0.01808   0.00908   0.0050  0.2488  1.0000  -2.0689   0.0000   0.0000   0.0000   0.2376
   5.300   0.6104   0.01827   0.00938   0.0052  0.2390  1.0000  -2.1208   0.0000   0.0000   0.0000   0.2374
   5.400   0.6203   0.01854   0.00957   0.0054  0.2310  1.0000  -2.1756   0.0000   0.0000   0.0000   0.2371
   5.500   0.6305   0.01889   0.00998   0.0055  0.2225  1.0000  -2.2260   0.0000   0.0000   0.0000   0.2369
   5.600   0.6407   0.01915   0.01024   0.0058  0.2142  1.0000  -2.2789   0.0000   0.0000   0.0000   0.2366
   5.700   0.6504   0.01960   0.01057   0.0059  0.2069  1.0000  -2.3321   0.0000   0.0000   0.0000   0.2364
   5.800   0.6607   0.01983   0.01094   0.0061  0.1980  1.0000  -2.3820   0.0000   0.0000   0.0000   0.2362
   5.900   0.6705   0.02011   0.01113   0.0063  0.1905  1.0000  -2.4499   0.0000   0.0000   0.0000   0.2359
   6.000   0.6804   0.02054   0.01163   0.0065  0.1827  1.0000  -2.5466   0.0000   0.0000   0.0000   0.2357
   6.100   0.6904   0.02083   0.01194   0.0067  0.1750  1.0000  -2.6488   0.0000   0.0000   0.0000   0.2354
   6.200   0.6999   0.02137   0.01232   0.0069  0.1684  1.0000  -2.7530   0.0000   0.0000   0.0000   0.2352
   6.300   0.7100   0.02162   0.01284   0.0071  0.1604  1.0000  -2.8588   0.0000   0.0000   0.0000   0.2350
   6.400   0.7198   0.02193   0.01308   0.0073  0.1539  1.0000  -2.9689   0.0000   0.0000   0.0000   0.2347
   6.500   0.7294   0.02255   0.01371   0.0075  0.1479  1.0000  -3.0681   0.0000   0.0000   0.0000   0.2345
   6.600   0.7393   0.02288   0.01416   0.0078  0.1410  1.0000  -3.1698   0.0000   0.0000   0.0000   0.2343
   6.700   0.7489   0.02324   0.01439   0.0079  0.1352  1.0000  -3.2836   0.0000   0.0000   0.0000   0.2341
   6.800   0.7584   0.02382   0.01510   0.0081  0.1291  1.0000  -3.3792   0.0000   0.0000   0.0000   0.2338
   6.900   0.7682   0.02423   0.01559   0.0084  0.1235  1.0000  -3.4815   0.0000   0.0000   0.0000   0.2336
   7.000   0.7778   0.02477   0.01603   0.0086  0.1191  1.0000  -3.5906   0.0000   0.0000   0.0000   0.2334
   7.100   0.7872   0.02567   0.01702   0.0088  0.1149  1.0000  -3.6777   0.0000   0.0000   0.0000   0.2331
   7.200   0.7968   0.02626   0.01780   0.0091  0.1103  1.0000  -3.7685   0.0000   0.0000   0.0000   0.2329
   7.300   0.8063   0.02668   0.01821   0.0093  0.1059  1.0000  -3.8777   0.0000   0.0000   0.0000   0.2326
   7.400   0.8151   0.02766   0.01901   0.0093  0.1020  1.0000  -3.9857   0.0000   0.0000   0.0000   0.2326
   7.500   0.8243   0.02814   0.01980   0.0097  0.0981  1.0000  -4.0703   0.0000   0.0000   0.0000   0.2322
   7.600   0.8335   0.02877   0.02057   0.0099  0.0945  1.0000  -4.1639   0.0000   0.0000   0.0000   0.2320
   7.700   0.8427   0.02944   0.02129   0.0101  0.0918  1.0000  -4.2624   0.0000   0.0000   0.0000   0.2317
   7.800   0.8519   0.03021   0.02201   0.0103  0.0894  1.0000  -4.3674   0.0000   0.0000   0.0000   0.2316
   7.900   0.8599   0.03172   0.02354   0.0104  0.0875  1.0000  -4.4439   0.0000   0.0000   0.0000   0.2315
   8.000   0.8679   0.03276   0.02491   0.0108  0.0859  1.0000  -4.5019   0.0000   0.0000   0.0000   0.2311
   8.100   0.8754   0.03402   0.02645   0.0111  0.0843  1.0000  -4.5551   0.0000   0.0000   0.0000   0.2308
   8.200   0.8826   0.03534   0.02807   0.0113  0.0828  1.0000  -4.6025   0.0000   0.0000   0.0000   0.2306
   8.300   0.8896   0.03665   0.02959   0.0115  0.0813  1.0000  -4.6566   0.0000   0.0000   0.0000   0.2304
   8.400   0.8973   0.03758   0.03063   0.0117  0.0794  1.0000  -4.7363   0.0000   0.0000   0.0000   0.2302
   8.500   0.9065   0.03797   0.03094   0.0119  0.0771  1.0000  -4.8604   0.0000   0.0000   0.0000   0.2300
   8.600   0.9139   0.03924   0.03209   0.0118  0.0749  1.0000  -4.9675   0.0000   0.0000   0.0000   0.2300
   8.700   0.9178   0.04075   0.03394   0.0120  0.0735  1.0000  -4.9888   0.0000   0.0000   0.0000   0.2298
   8.800   0.9213   0.04243   0.03596   0.0122  0.0723  1.0000  -4.9987   0.0000   0.0000   0.0000   0.2297
   8.900   0.9240   0.04445   0.03826   0.0122  0.0716  1.0000  -4.9973   0.0000   0.0000   0.0000   0.2297
   9.000   0.9255   0.04662   0.04071   0.0121  0.0711  1.0000  -4.9851   0.0000   0.0000   0.0000   0.2298
   9.100   0.9256   0.04896   0.04329   0.0119  0.0707  1.0000  -4.9613   0.0000   0.0000   0.0000   0.2300
   9.200   0.9243   0.05146   0.04602   0.0115  0.0705  1.0000  -4.9252   0.0000   0.0000   0.0000   0.2303
   9.300   0.9214   0.05410   0.04888   0.0109  0.0705  1.0000  -4.8771   0.0000   0.0000   0.0000   0.2309
   9.400   0.9171   0.05687   0.05183   0.0102  0.0707  1.0000  -4.8188   0.0000   0.0000   0.0000   0.2316
   9.500   0.9114   0.05972   0.05483   0.0091  0.0709  1.0000  -4.7529   0.0000   0.0000   0.0000   0.2326
   9.600   0.9046   0.06259   0.05784   0.0079  0.0713  1.0000  -4.6825   0.0000   0.0000   0.0000   0.2339
   9.700   0.8970   0.06547   0.06082   0.0065  0.0717  1.0000  -4.6104   0.0000   0.0000   0.0000   0.2354
   9.800   0.8891   0.06833   0.06374   0.0048  0.0722  1.0000  -4.5389   0.0000   0.0000   0.0000   0.2371
   9.900   0.8806   0.07099   0.06645   0.0032  0.0726  1.0000  -4.4720   0.0000   0.0000   0.0000   0.2388
  10.000   0.8725   0.07382   0.06930   0.0011  0.0730  1.0000  -4.4054   0.0000   0.0000   0.0000   0.2411
  10.100   0.8654   0.07680   0.07229  -0.0012  0.0735  1.0000  -4.3410   0.0000   0.0000   0.0000   0.2437
  10.200   0.8596   0.07980   0.07529  -0.0034  0.0738  1.0000  -4.2840   0.0000   0.0000   0.0000   0.2461
  10.300   0.8555   0.08267   0.07816  -0.0050  0.0742  1.0000  -4.2398   0.0000   0.0000   0.0000   0.2480
  10.400   0.8534   0.08529   0.08077  -0.0059  0.0745  1.0000  -4.2147   0.0000   0.0000   0.0000   0.2490
  10.700   0.7322   0.12645   0.12152  -0.0424  0.1432  1.0000  -2.2216   0.0000   0.0000   0.0000   0.3015
  10.800   0.7344   0.12778   0.12285  -0.0426  0.1402  1.0000  -2.2441   0.0000   0.0000   0.0000   0.3016
  10.900   0.7639   0.12817   0.12337  -0.0368  0.1347  1.0000  -2.5237   0.0000   0.0000   0.0000   0.2915
  11.000   0.7839   0.13206   0.12733  -0.0327  0.1334  1.0000  -2.6859   0.0000   0.0000   0.0000   0.2849
  11.100   0.7772   0.13393   0.12916  -0.0350  0.1332  1.0000  -2.6190   0.0000   0.0000   0.0000   0.2882
  11.200   0.7685   0.13561   0.13080  -0.0377  0.1330  1.0000  -2.5373   0.0000   0.0000   0.0000   0.2922
  11.300   0.7572   0.13704   0.13218  -0.0410  0.1324  1.0000  -2.4334   0.0000   0.0000   0.0000   0.2972
  11.400   0.7442   0.13824   0.13332  -0.0447  0.1308  1.0000  -2.3141   0.0000   0.0000   0.0000   0.3031
  11.500   0.7389   0.13968   0.13473  -0.0465  0.1285  1.0000  -2.2633   0.0000   0.0000   0.0000   0.3060
  11.600   0.7381   0.14122   0.13627  -0.0475  0.1264  1.0000  -2.2508   0.0000   0.0000   0.0000   0.3072
  11.700   0.7391   0.14276   0.13781  -0.0480  0.1246  1.0000  -2.2546   0.0000   0.0000   0.0000   0.3078
  11.800   0.7417   0.14429   0.13934  -0.0483  0.1229  1.0000  -2.2713   0.0000   0.0000   0.0000   0.3078
  11.900   0.7461   0.14583   0.14090  -0.0481  0.1213  1.0000  -2.3032   0.0000   0.0000   0.0000   0.3072
  12.000   0.7537   0.14750   0.14259  -0.0473  0.1198  1.0000  -2.3616   0.0000   0.0000   0.0000   0.3054
  12.100   0.7708   0.15003   0.14520  -0.0444  0.1182  1.0000  -2.4949   0.0000   0.0000   0.0000   0.3000
  12.200   0.7821   0.15425   0.14945  -0.0424  0.1171  1.0000  -2.5659   0.0000   0.0000   0.0000   0.2966
  12.300   0.7756   0.15562   0.15078  -0.0446  0.1169  1.0000  -2.4989   0.0000   0.0000   0.0000   0.2999
  12.400   0.7683   0.15680   0.15193  -0.0471  0.1165  1.0000  -2.4241   0.0000   0.0000   0.0000   0.3036
  12.500   0.7595   0.15772   0.15280  -0.0500  0.1159  1.0000  -2.3389   0.0000   0.0000   0.0000   0.3080
  12.600   0.7515   0.15853   0.15358  -0.0525  0.1144  1.0000  -2.2616   0.0000   0.0000   0.0000   0.3120
  12.700   0.7489   0.15983   0.15486  -0.0540  0.1124  1.0000  -2.2254   0.0000   0.0000   0.0000   0.3142
  12.800   0.7491   0.16130   0.15634  -0.0548  0.1104  1.0000  -2.2128   0.0000   0.0000   0.0000   0.3152
  12.900   0.7514   0.16275   0.15779  -0.0552  0.1081  1.0000  -2.2190   0.0000   0.0000   0.0000   0.3154
  13.000   0.7851   0.16749   0.16265  -0.0479  0.1018  1.0000  -2.4852   0.0000   0.0000   0.0000   0.3028
  13.100   0.7799   0.16876   0.16389  -0.0501  0.1016  1.0000  -2.4203   0.0000   0.0000   0.0000   0.3060
  13.200   0.7738   0.16981   0.16491  -0.0526  0.1012  1.0000  -2.3498   0.0000   0.0000   0.0000   0.3096
  13.300   0.7669   0.17056   0.16562  -0.0550  0.1006  1.0000  -2.2781   0.0000   0.0000   0.0000   0.3133
  13.400   0.7612   0.17130   0.16634  -0.0571  0.0993  1.0000  -2.2139   0.0000   0.0000   0.0000   0.3166
  13.500   0.7594   0.17255   0.16758  -0.0585  0.0974  1.0000  -2.1760   0.0000   0.0000   0.0000   0.3185
  13.600   0.7602   0.17402   0.16905  -0.0594  0.0954  1.0000  -2.1581   0.0000   0.0000   0.0000   0.3194
  13.700   0.7623   0.17554   0.17057  -0.0598  0.0935  1.0000  -2.1518   0.0000   0.0000   0.0000   0.3198
  13.800   0.7659   0.17709   0.17213  -0.0599  0.0917  1.0000  -2.1579   0.0000   0.0000   0.0000   0.3194
  13.900   0.7729   0.17897   0.17403  -0.0592  0.0899  1.0000  -2.1898   0.0000   0.0000   0.0000   0.3176
  14.000   0.7964   0.18558   0.18070  -0.0545  0.0876  1.0000  -2.3053   0.0000   0.0000   0.0000   0.3094
  14.100   0.7925   0.18663   0.18173  -0.0566  0.0874  1.0000  -2.2459   0.0000   0.0000   0.0000   0.3123
  14.200   0.7879   0.18743   0.18251  -0.0587  0.0872  1.0000  -2.1857   0.0000   0.0000   0.0000   0.3153
  14.300   0.7827   0.18787   0.18292  -0.0607  0.0868  1.0000  -2.1270   0.0000   0.0000   0.0000   0.3183
  14.400   0.7782   0.18837   0.18339  -0.0628  0.0861  1.0000  -2.0656   0.0000   0.0000   0.0000   0.3214
  14.500   0.7761   0.18931   0.18431  -0.0647  0.0845  1.0000  -2.0138   0.0000   0.0000   0.0000   0.3240
  14.600   0.7768   0.19067   0.18567  -0.0658  0.0822  1.0000  -1.9847   0.0000   0.0000   0.0000   0.3252
  14.700   0.7795   0.19206   0.18706  -0.0663  0.0796  1.0000  -1.9787   0.0000   0.0000   0.0000   0.3254
  14.800   0.8041   0.19800   0.19311  -0.0607  0.0743  1.0000  -2.1521   0.0000   0.0000   0.0000   0.3157
  14.900   0.8007   0.19880   0.19389  -0.0626  0.0742  1.0000  -2.0964   0.0000   0.0000   0.0000   0.3183
  15.000   0.7968   0.19930   0.19437  -0.0645  0.0739  1.0000  -2.0391   0.0000   0.0000   0.0000   0.3211


