xflr5 v6.61

 Calculated polar for: S8025 (8%)

 1 1 Reynolds number fixed          Mach number fixed         

 xtrf =   1.000 (top)        1.000 (bottom)
 Mach =   0.000     Re =     0.350 e 6     Ncrit =   9.000

  alpha     CL        CD       CDp       Cm    Top Xtr Bot Xtr   Cpmin    Chinge    XCp    
 ------- -------- --------- --------- -------- ------- ------- -------- --------- ---------
 -10.000  -0.6871   0.11181   0.10918   0.0336  1.0000  0.0235  -2.1954   0.0000   0.0000   0.0000   0.2935
  -7.200  -0.7252   0.03129   0.02659  -0.0105  1.0000  0.0136  -4.3680   0.0000   0.0000   0.0000   0.2306
  -7.100  -0.7205   0.02897   0.02406  -0.0102  1.0000  0.0129  -4.4212   0.0000   0.0000   0.0000   0.2309
  -7.000  -0.7144   0.02686   0.02167  -0.0098  1.0000  0.0121  -4.4885   0.0000   0.0000   0.0000   0.2314
  -6.900  -0.7079   0.02440   0.01883  -0.0091  1.0000  0.0110  -4.6335   0.0000   0.0000   0.0000   0.2322
  -6.800  -0.6998   0.02244   0.01652  -0.0084  1.0000  0.0101  -4.7683   0.0000   0.0000   0.0000   0.2331
  -6.700  -0.6902   0.02161   0.01552  -0.0080  1.0000  0.0098  -4.7454   0.0000   0.0000   0.0000   0.2336
  -6.600  -0.6803   0.02100   0.01481  -0.0077  1.0000  0.0096  -4.6816   0.0000   0.0000   0.0000   0.2340
  -6.500  -0.6705   0.02045   0.01417  -0.0074  1.0000  0.0095  -4.6064   0.0000   0.0000   0.0000   0.2343
  -6.400  -0.6606   0.01991   0.01356  -0.0071  1.0000  0.0094  -4.5276   0.0000   0.0000   0.0000   0.2346
  -6.300  -0.6508   0.01937   0.01295  -0.0068  1.0000  0.0093  -4.4487   0.0000   0.0000   0.0000   0.2350
  -6.200  -0.6409   0.01882   0.01233  -0.0066  1.0000  0.0093  -4.3713   0.0000   0.0000   0.0000   0.2353
  -6.100  -0.6312   0.01824   0.01170  -0.0063  1.0000  0.0092  -4.2965   0.0000   0.0000   0.0000   0.2356
  -6.000  -0.6215   0.01765   0.01105  -0.0060  1.0000  0.0092  -4.2250   0.0000   0.0000   0.0000   0.2360
  -5.900  -0.6119   0.01704   0.01038  -0.0057  1.0000  0.0092  -4.1572   0.0000   0.0000   0.0000   0.2364
  -5.800  -0.6024   0.01642   0.00971  -0.0054  1.0000  0.0092  -4.0931   0.0000   0.0000   0.0000   0.2369
  -5.700  -0.5930   0.01579   0.00903  -0.0050  1.0000  0.0092  -4.0320   0.0000   0.0000   0.0000   0.2374
  -5.600  -0.5836   0.01518   0.00837  -0.0047  1.0000  0.0093  -3.9729   0.0000   0.0000   0.0000   0.2378
  -5.500  -0.5742   0.01458   0.00773  -0.0044  1.0000  0.0094  -3.9137   0.0000   0.0000   0.0000   0.2383
  -5.400  -0.5647   0.01404   0.00713  -0.0041  1.0000  0.0096  -3.8525   0.0000   0.0000   0.0000   0.2388
  -5.300  -0.5549   0.01355   0.00660  -0.0038  1.0000  0.0099  -3.7867   0.0000   0.0000   0.0000   0.2393
  -5.200  -0.5450   0.01314   0.00614  -0.0036  1.0000  0.0103  -3.7134   0.0000   0.0000   0.0000   0.2397
  -5.100  -0.5348   0.01280   0.00576  -0.0033  1.0000  0.0108  -3.6317   0.0000   0.0000   0.0000   0.2400
  -5.000  -0.5244   0.01253   0.00541  -0.0031  1.0000  0.0113  -3.5348   0.0000   0.0000   0.0000   0.2403
  -4.900  -0.5140   0.01225   0.00510  -0.0029  1.0000  0.0122  -3.4553   0.0000   0.0000   0.0000   0.2407
  -4.800  -0.5035   0.01200   0.00480  -0.0027  1.0000  0.0134  -3.3840   0.0000   0.0000   0.0000   0.2411
  -4.700  -0.4933   0.01160   0.00437  -0.0024  1.0000  0.0171  -3.3523   0.0000   0.0000   0.0000   0.2416
  -4.600  -0.4845   0.01081   0.00387  -0.0021  1.0000  0.0560  -3.3576   0.0000   0.0000   0.0000   0.2423
  -4.500  -0.4742   0.01058   0.00372  -0.0019  1.0000  0.0718  -3.2494   0.0000   0.0000   0.0000   0.2425
  -4.400  -0.4637   0.01040   0.00360  -0.0018  1.0000  0.0835  -3.1288   0.0000   0.0000   0.0000   0.2428
  -4.300  -0.4534   0.01022   0.00348  -0.0017  1.0000  0.0954  -3.0051   0.0000   0.0000   0.0000   0.2430
  -4.200  -0.4430   0.01003   0.00337  -0.0016  1.0000  0.1106  -2.8807   0.0000   0.0000   0.0000   0.2432
  -4.100  -0.4328   0.00982   0.00327  -0.0015  1.0000  0.1295  -2.7565   0.0000   0.0000   0.0000   0.2434
  -4.000  -0.4226   0.00962   0.00318  -0.0014  1.0000  0.1500  -2.6334   0.0000   0.0000   0.0000   0.2436
  -3.900  -0.4124   0.00941   0.00308  -0.0013  1.0000  0.1714  -2.5119   0.0000   0.0000   0.0000   0.2438
  -3.800  -0.4022   0.00921   0.00299  -0.0012  1.0000  0.1932  -2.3920   0.0000   0.0000   0.0000   0.2441
  -3.700  -0.3919   0.00902   0.00290  -0.0010  1.0000  0.2143  -2.2737   0.0000   0.0000   0.0000   0.2444
  -3.600  -0.3815   0.00885   0.00281  -0.0009  1.0000  0.2337  -2.1569   0.0000   0.0000   0.0000   0.2447
  -3.500  -0.3710   0.00871   0.00272  -0.0008  1.0000  0.2513  -2.0415   0.0000   0.0000   0.0000   0.2450
  -3.400  -0.3607   0.00855   0.00264  -0.0006  1.0000  0.2697  -1.9291   0.0000   0.0000   0.0000   0.2454
  -3.300  -0.3503   0.00840   0.00253  -0.0005  1.0000  0.2882  -1.8229   0.0000   0.0000   0.0000   0.2458
  -3.200  -0.3399   0.00826   0.00245  -0.0004  1.0000  0.3062  -1.7122   0.0000   0.0000   0.0000   0.2462
  -3.100  -0.3295   0.00813   0.00238  -0.0002  1.0000  0.3246  -1.6238   0.0000   0.0000   0.0000   0.2467
  -2.900  -0.3088   0.00785   0.00225   0.0001  1.0000  0.3660  -1.4593   0.0000   0.0000   0.0000   0.2478
  -2.800  -0.2985   0.00771   0.00219   0.0003  1.0000  0.3880  -1.3794   0.0000   0.0000   0.0000   0.2484
  -2.700  -0.2883   0.00757   0.00214   0.0005  1.0000  0.4101  -1.3008   0.0000   0.0000   0.0000   0.2491
  -2.600  -0.2781   0.00744   0.00209   0.0007  1.0000  0.4321  -1.2236   0.0000   0.0000   0.0000   0.2499
  -2.500  -0.2678   0.00732   0.00205   0.0008  1.0000  0.4536  -1.1476   0.0000   0.0000   0.0000   0.2507
  -2.400  -0.2575   0.00721   0.00201   0.0010  1.0000  0.4751  -1.0730   0.0000   0.0000   0.0000   0.2516
  -2.200  -0.2373   0.00697   0.00195   0.0015  1.0000  0.5240  -0.9287   0.0000   0.0000   0.0000   0.2540
  -2.100  -0.2272   0.00685   0.00193   0.0018  1.0000  0.5489  -0.8590   0.0000   0.0000   0.0000   0.2555
  -2.000  -0.2173   0.00673   0.00191   0.0021  1.0000  0.5732  -0.8126   0.0000   0.0000   0.0000   0.2572
  -1.900  -0.2073   0.00662   0.00190   0.0023  1.0000  0.5964  -0.7851   0.0000   0.0000   0.0000   0.2591
  -1.800  -0.1973   0.00652   0.00188   0.0026  1.0000  0.6177  -0.7590   0.0000   0.0000   0.0000   0.2612
  -1.700  -0.1873   0.00643   0.00183   0.0029  1.0000  0.6376  -0.7330   0.0000   0.0000   0.0000   0.2635
  -1.600  -0.1771   0.00636   0.00182   0.0032  1.0000  0.6565  -0.7071   0.0000   0.0000   0.0000   0.2660
  -1.500  -0.1672   0.00627   0.00181   0.0035  1.0000  0.6748  -0.6816   0.0000   0.0000   0.0000   0.2690
  -1.400  -0.1573   0.00619   0.00181   0.0039  1.0000  0.6929  -0.6563   0.0000   0.0000   0.0000   0.2724
  -1.300  -0.1474   0.00612   0.00181   0.0042  1.0000  0.7116  -0.6312   0.0000   0.0000   0.0000   0.2763
  -1.200  -0.1358   0.00604   0.00181   0.0042  0.9979  0.7316  -0.6043   0.0000   0.0000   0.0000   0.2786
  -1.100  -0.1186   0.00597   0.00182   0.0030  0.9873  0.7543  -0.5706   0.0000   0.0000   0.0000   0.2729
  -0.800  -0.0684   0.00579   0.00185   0.0000  0.9386  0.8187  -0.4829   0.0000   0.0000   0.0000   0.2484
  -0.700  -0.0539   0.00575   0.00184  -0.0003  0.9157  0.8385  -0.4568   0.0000   0.0000   0.0000   0.2416
  -0.600  -0.0420   0.00574   0.00184  -0.0001  0.8914  0.8577  -0.4334   0.0000   0.0000   0.0000   0.2458
  -0.500  -0.0320   0.00574   0.00183   0.0006  0.8663  0.8764  -0.4133   0.0000   0.0000   0.0000   0.2663
  -0.400  -0.0224   0.00577   0.00182   0.0014  0.8421  0.8947  -0.3968   0.0000   0.0000   0.0000   0.3079
  -0.200   0.0002   0.00588   0.00179   0.0020  0.7967  0.9285  -0.3986   0.0000   0.0000   0.0000  -13.2386
  -0.100   0.0138   0.00595   0.00178   0.0018  0.7751  0.9427  -0.4150   0.0000   0.0000   0.0000   0.1185
   0.000   0.0284   0.00602   0.00176   0.0013  0.7540  0.9549  -0.4323   0.0000   0.0000   0.0000   0.2038
   0.100   0.0437   0.00609   0.00174   0.0005  0.7340  0.9655  -0.4501   0.0000   0.0000   0.0000   0.2359
   0.200   0.0598   0.00615   0.00173  -0.0004  0.7155  0.9753  -0.4701   0.0000   0.0000   0.0000   0.2544
   0.300   0.0763   0.00622   0.00171  -0.0014  0.6979  0.9844  -0.4907   0.0000   0.0000   0.0000   0.2669
   0.500   0.1111   0.00636   0.00167  -0.0040  0.6607  0.9997  -0.5336   0.0000   0.0000   0.0000   0.2842
   0.600   0.1214   0.00642   0.00166  -0.0038  0.6447  1.0000  -0.5495   0.0000   0.0000   0.0000   0.2796
   0.800   0.1416   0.00655   0.00163  -0.0033  0.6121  1.0000  -0.5810   0.0000   0.0000   0.0000   0.2718
   0.900   0.1517   0.00663   0.00163  -0.0031  0.5966  1.0000  -0.5969   0.0000   0.0000   0.0000   0.2686
   1.000   0.1618   0.00670   0.00162  -0.0029  0.5806  1.0000  -0.6134   0.0000   0.0000   0.0000   0.2659
   1.100   0.1720   0.00676   0.00162  -0.0027  0.5656  1.0000  -0.6312   0.0000   0.0000   0.0000   0.2635
   1.300   0.1924   0.00691   0.00164  -0.0023  0.5363  1.0000  -0.6670   0.0000   0.0000   0.0000   0.2596
   1.400   0.2026   0.00699   0.00164  -0.0020  0.5226  1.0000  -0.6869   0.0000   0.0000   0.0000   0.2579
   1.500   0.2130   0.00705   0.00166  -0.0019  0.5093  1.0000  -0.7095   0.0000   0.0000   0.0000   0.2566
   1.600   0.2232   0.00714   0.00167  -0.0017  0.4967  1.0000  -0.7321   0.0000   0.0000   0.0000   0.2552
   1.700   0.2337   0.00719   0.00169  -0.0015  0.4843  1.0000  -0.7551   0.0000   0.0000   0.0000   0.2542
   1.900   0.2545   0.00734   0.00173  -0.0012  0.4595  1.0000  -0.8018   0.0000   0.0000   0.0000   0.2522
   2.000   0.2648   0.00744   0.00175  -0.0010  0.4469  1.0000  -0.8278   0.0000   0.0000   0.0000   0.2513
   2.100   0.2754   0.00750   0.00178  -0.0008  0.4355  1.0000  -0.8542   0.0000   0.0000   0.0000   0.2506
   2.200   0.2858   0.00759   0.00180  -0.0007  0.4237  1.0000  -0.8807   0.0000   0.0000   0.0000   0.2498
   2.300   0.2963   0.00766   0.00184  -0.0005  0.4135  1.0000  -0.9075   0.0000   0.0000   0.0000   0.2492
   2.400   0.3068   0.00773   0.00187  -0.0004  0.4026  1.0000  -0.9345   0.0000   0.0000   0.0000   0.2486
   2.500   0.3173   0.00784   0.00191  -0.0002  0.3921  1.0000  -0.9614   0.0000   0.0000   0.0000   0.2481
   2.600   0.3279   0.00790   0.00195  -0.0001  0.3818  1.0000  -0.9889   0.0000   0.0000   0.0000   0.2476
   2.700   0.3384   0.00800   0.00198   0.0001  0.3709  1.0000  -1.0163   0.0000   0.0000   0.0000   0.2471
   2.800   0.3490   0.00807   0.00203   0.0002  0.3611  1.0000  -1.0440   0.0000   0.0000   0.0000   0.2467
   2.900   0.3595   0.00816   0.00207   0.0003  0.3504  1.0000  -1.0719   0.0000   0.0000   0.0000   0.2463
   3.000   0.3701   0.00826   0.00217   0.0005  0.3405  1.0000  -1.0998   0.0000   0.0000   0.0000   0.2459
   3.100   0.3807   0.00833   0.00222   0.0006  0.3304  1.0000  -1.1292   0.0000   0.0000   0.0000   0.2456
   3.200   0.3912   0.00845   0.00227   0.0007  0.3200  1.0000  -1.1612   0.0000   0.0000   0.0000   0.2452
   3.300   0.4019   0.00851   0.00233   0.0008  0.3109  1.0000  -1.1938   0.0000   0.0000   0.0000   0.2449
   3.400   0.4125   0.00861   0.00239   0.0009  0.3012  1.0000  -1.2330   0.0000   0.0000   0.0000   0.2446
   3.500   0.4231   0.00871   0.00245   0.0011  0.2924  1.0000  -1.2767   0.0000   0.0000   0.0000   0.2444
   3.600   0.4338   0.00879   0.00251   0.0012  0.2836  1.0000  -1.3210   0.0000   0.0000   0.0000   0.2441
   3.700   0.4443   0.00891   0.00258   0.0013  0.2745  1.0000  -1.3653   0.0000   0.0000   0.0000   0.2439
   3.800   0.4550   0.00899   0.00265   0.0014  0.2665  1.0000  -1.4104   0.0000   0.0000   0.0000   0.2436
   3.900   0.4656   0.00909   0.00272   0.0015  0.2577  1.0000  -1.4558   0.0000   0.0000   0.0000   0.2434
   4.000   0.4761   0.00922   0.00280   0.0016  0.2492  1.0000  -1.5012   0.0000   0.0000   0.0000   0.2432
   4.100   0.4869   0.00929   0.00288   0.0017  0.2417  1.0000  -1.5552   0.0000   0.0000   0.0000   0.2430
   4.200   0.4975   0.00941   0.00296   0.0018  0.2337  1.0000  -1.6097   0.0000   0.0000   0.0000   0.2428
   4.300   0.5081   0.00953   0.00305   0.0019  0.2264  1.0000  -1.6646   0.0000   0.0000   0.0000   0.2426
   4.400   0.5188   0.00961   0.00313   0.0020  0.2192  1.0000  -1.7205   0.0000   0.0000   0.0000   0.2424
   4.500   0.5294   0.00974   0.00326   0.0021  0.2115  1.0000  -1.7771   0.0000   0.0000   0.0000   0.2422
   4.600   0.5400   0.00986   0.00336   0.0022  0.2044  1.0000  -1.8338   0.0000   0.0000   0.0000   0.2420
   4.700   0.5507   0.00996   0.00346   0.0023  0.1970  1.0000  -1.8912   0.0000   0.0000   0.0000   0.2419
   4.800   0.5611   0.01012   0.00356   0.0024  0.1891  1.0000  -1.9480   0.0000   0.0000   0.0000   0.2417
   4.900   0.5718   0.01021   0.00367   0.0025  0.1824  1.0000  -2.0064   0.0000   0.0000   0.0000   0.2415
   5.000   0.5824   0.01034   0.00377   0.0026  0.1750  1.0000  -2.0648   0.0000   0.0000   0.0000   0.2414
   5.100   0.5928   0.01051   0.00389   0.0027  0.1677  1.0000  -2.1229   0.0000   0.0000   0.0000   0.2412
   5.200   0.6036   0.01059   0.00400   0.0028  0.1610  1.0000  -2.1829   0.0000   0.0000   0.0000   0.2410
   5.300   0.6140   0.01075   0.00411   0.0029  0.1537  1.0000  -2.2424   0.0000   0.0000   0.0000   0.2409
   5.400   0.6246   0.01088   0.00424   0.0030  0.1473  1.0000  -2.3023   0.0000   0.0000   0.0000   0.2407
   5.500   0.6353   0.01100   0.00435   0.0031  0.1405  1.0000  -2.3631   0.0000   0.0000   0.0000   0.2406
   5.600   0.6455   0.01122   0.00451   0.0032  0.1335  1.0000  -2.4226   0.0000   0.0000   0.0000   0.2404
   5.700   0.6563   0.01130   0.00463   0.0033  0.1281  1.0000  -2.4844   0.0000   0.0000   0.0000   0.2403
   5.800   0.6667   0.01146   0.00476   0.0034  0.1218  1.0000  -2.5617   0.0000   0.0000   0.0000   0.2401
   5.900   0.6770   0.01167   0.00494   0.0035  0.1157  1.0000  -2.6734   0.0000   0.0000   0.0000   0.2399
   6.000   0.6877   0.01178   0.00507   0.0036  0.1101  1.0000  -2.7895   0.0000   0.0000   0.0000   0.2398
   6.100   0.6979   0.01200   0.00527   0.0037  0.1040  1.0000  -2.9102   0.0000   0.0000   0.0000   0.2397
   6.200   0.7084   0.01216   0.00545   0.0038  0.0989  1.0000  -3.0299   0.0000   0.0000   0.0000   0.2395
   6.300   0.7189   0.01231   0.00561   0.0039  0.0937  1.0000  -3.1511   0.0000   0.0000   0.0000   0.2393
   6.400   0.7289   0.01259   0.00584   0.0040  0.0883  1.0000  -3.2685   0.0000   0.0000   0.0000   0.2392
   6.500   0.7395   0.01273   0.00601   0.0042  0.0844  1.0000  -3.3915   0.0000   0.0000   0.0000   0.2390
   6.600   0.7499   0.01290   0.00618   0.0043  0.0799  1.0000  -3.5155   0.0000   0.0000   0.0000   0.2388
   6.700   0.7596   0.01325   0.00648   0.0044  0.0747  1.0000  -3.6331   0.0000   0.0000   0.0000   0.2386
   6.800   0.7702   0.01338   0.00666   0.0045  0.0713  1.0000  -3.7597   0.0000   0.0000   0.0000   0.2385
   6.900   0.7805   0.01358   0.00687   0.0046  0.0673  1.0000  -3.8860   0.0000   0.0000   0.0000   0.2383
   7.000   0.7898   0.01404   0.00728   0.0048  0.0625  1.0000  -4.0009   0.0000   0.0000   0.0000   0.2380
   7.100   0.8003   0.01419   0.00749   0.0050  0.0598  1.0000  -4.1291   0.0000   0.0000   0.0000   0.2378
   7.200   0.8106   0.01441   0.00773   0.0051  0.0567  1.0000  -4.2569   0.0000   0.0000   0.0000   0.2377
   7.300   0.8203   0.01473   0.00803   0.0052  0.0537  1.0000  -4.3824   0.0000   0.0000   0.0000   0.2375
   7.400   0.8294   0.01523   0.00854   0.0055  0.0508  1.0000  -4.4963   0.0000   0.0000   0.0000   0.2372
   7.500   0.8398   0.01541   0.00876   0.0056  0.0488  1.0000  -4.6290   0.0000   0.0000   0.0000   0.2370
   7.600   0.8500   0.01562   0.00901   0.0057  0.0467  1.0000  -4.7621   0.0000   0.0000   0.0000   0.2368
   7.700   0.8600   0.01587   0.00927   0.0058  0.0448  1.0000  -4.8962   0.0000   0.0000   0.0000   0.2366
   7.800   0.8694   0.01628   0.00970   0.0060  0.0431  1.0000  -5.0169   0.0000   0.0000   0.0000   0.2364
   7.900   0.8774   0.01703   0.01046   0.0063  0.0412  1.0000  -5.1191   0.0000   0.0000   0.0000   0.2360
   8.000   0.8876   0.01725   0.01074   0.0065  0.0404  1.0000  -5.2528   0.0000   0.0000   0.0000   0.2358
   8.100   0.8975   0.01753   0.01108   0.0067  0.0394  1.0000  -5.3839   0.0000   0.0000   0.0000   0.2356
   8.200   0.9073   0.01785   0.01146   0.0069  0.0384  1.0000  -5.5143   0.0000   0.0000   0.0000   0.2353
   8.300   0.9169   0.01818   0.01183   0.0071  0.0374  1.0000  -5.6456   0.0000   0.0000   0.0000   0.2351
   8.400   0.9266   0.01850   0.01219   0.0072  0.0364  1.0000  -5.7793   0.0000   0.0000   0.0000   0.2349
   8.500   0.9362   0.01879   0.01250   0.0074  0.0353  1.0000  -5.9194   0.0000   0.0000   0.0000   0.2347
   8.600   0.9454   0.01916   0.01287   0.0075  0.0340  1.0000  -6.0593   0.0000   0.0000   0.0000   0.2345
   8.700   0.9521   0.02017   0.01390   0.0078  0.0323  1.0000  -6.1555   0.0000   0.0000   0.0000   0.2341
   8.800   0.9632   0.02008   0.01387   0.0078  0.0314  1.0000  -6.3222   0.0000   0.0000   0.0000   0.2341
   8.900   0.9737   0.02012   0.01398   0.0079  0.0301  1.0000  -6.4825   0.0000   0.0000   0.0000   0.2340
   9.000   0.9838   0.02023   0.01413   0.0079  0.0287  1.0000  -6.6418   0.0000   0.0000   0.0000   0.2339
   9.100   0.9937   0.02038   0.01430   0.0080  0.0275  1.0000  -6.8010   0.0000   0.0000   0.0000   0.2338
   9.200   1.0030   0.02069   0.01462   0.0081  0.0264  1.0000  -6.9484   0.0000   0.0000   0.0000   0.2336
   9.300   1.0102   0.02145   0.01539   0.0083  0.0252  1.0000  -7.0596   0.0000   0.0000   0.0000   0.2333
   9.400   1.0180   0.02214   0.01616   0.0086  0.0242  1.0000  -7.1671   0.0000   0.0000   0.0000   0.2330
   9.500   1.0280   0.02229   0.01643   0.0087  0.0233  1.0000  -7.3151   0.0000   0.0000   0.0000   0.2329
   9.600   1.0377   0.02250   0.01671   0.0088  0.0220  1.0000  -7.4547   0.0000   0.0000   0.0000   0.2327
   9.700   1.0475   0.02266   0.01690   0.0089  0.0205  1.0000  -7.6002   0.0000   0.0000   0.0000   0.2326
   9.800   1.0561   0.02302   0.01725   0.0089  0.0189  1.0000  -7.7326   0.0000   0.0000   0.0000   0.2325
   9.900   1.0621   0.02401   0.01835   0.0092  0.0168  1.0000  -7.7560   0.0000   0.0000   0.0000   0.2321
  10.000   1.0716   0.02427   0.01868   0.0094  0.0147  1.0000  -7.8303   0.0000   0.0000   0.0000   0.2319
  10.100   1.0800   0.02467   0.01911   0.0095  0.0135  1.0000  -7.9316   0.0000   0.0000   0.0000   0.2318
  10.200   1.0824   0.02623   0.02073   0.0099  0.0123  1.0000  -7.9161   0.0000   0.0000   0.0000   0.2313
  10.300   1.0868   0.02744   0.02208   0.0103  0.0118  1.0000  -7.9264   0.0000   0.0000   0.0000   0.2309
  10.400   1.0944   0.02798   0.02272   0.0105  0.0114  1.0000  -8.0156   0.0000   0.0000   0.0000   0.2306
  10.500   1.1013   0.02862   0.02345   0.0107  0.0110  1.0000  -8.1020   0.0000   0.0000   0.0000   0.2303
  10.600   1.1079   0.02929   0.02422   0.0109  0.0106  1.0000  -8.1913   0.0000   0.0000   0.0000   0.2301
  10.700   1.1144   0.02994   0.02495   0.0111  0.0102  1.0000  -8.2893   0.0000   0.0000   0.0000   0.2298
  10.800   1.1210   0.03054   0.02562   0.0112  0.0098  1.0000  -8.3994   0.0000   0.0000   0.0000   0.2296
  10.900   1.1276   0.03107   0.02621   0.0114  0.0095  1.0000  -8.5229   0.0000   0.0000   0.0000   0.2294
  11.000   1.1344   0.03155   0.02673   0.0114  0.0091  1.0000  -8.6585   0.0000   0.0000   0.0000   0.2293
  11.100   1.1411   0.03202   0.02723   0.0115  0.0088  1.0000  -8.8004   0.0000   0.0000   0.0000   0.2291
  11.200   1.1469   0.03258   0.02784   0.0116  0.0085  1.0000  -8.9428   0.0000   0.0000   0.0000   0.2290
  11.300   1.1510   0.03339   0.02871   0.0117  0.0083  1.0000  -9.0709   0.0000   0.0000   0.0000   0.2288
  11.400   1.1526   0.03453   0.02993   0.0118  0.0080  1.0000  -9.1544   0.0000   0.0000   0.0000   0.2286
  11.500   1.1514   0.03599   0.03150   0.0119  0.0078  1.0000  -9.1921   0.0000   0.0000   0.0000   0.2283
  11.600   1.1480   0.03767   0.03330   0.0119  0.0077  1.0000  -9.1955   0.0000   0.0000   0.0000   0.2282
  11.700   1.1425   0.03930   0.03504   0.0121  0.0076  1.0000  -9.1798   0.0000   0.0000   0.0000   0.2278
  11.800   1.1371   0.04096   0.03683   0.0118  0.0076  1.0000  -9.1679   0.0000   0.0000   0.0000   0.2279
  11.900   1.1310   0.04291   0.03889   0.0107  0.0075  1.0000  -9.1391   0.0000   0.0000   0.0000   0.2287
  12.000   1.1248   0.04523   0.04128   0.0089  0.0075  1.0000  -9.0964   0.0000   0.0000   0.0000   0.2301
  12.100   1.1194   0.04769   0.04384   0.0067  0.0075  1.0000  -9.0616   0.0000   0.0000   0.0000   0.2318
  12.200   1.1143   0.05032   0.04656   0.0043  0.0075  1.0000  -9.0245   0.0000   0.0000   0.0000   0.2337
  12.300   1.1092   0.05304   0.04937   0.0019  0.0075  1.0000  -8.9857   0.0000   0.0000   0.0000   0.2357
  12.400   1.1041   0.05584   0.05225  -0.0005  0.0075  1.0000  -8.9454   0.0000   0.0000   0.0000   0.2378
  12.500   1.0990   0.05868   0.05516  -0.0029  0.0075  1.0000  -8.9038   0.0000   0.0000   0.0000   0.2398
  12.600   1.0939   0.06154   0.05809  -0.0052  0.0075  1.0000  -8.8611   0.0000   0.0000   0.0000   0.2417
  12.700   1.0886   0.06437   0.06098  -0.0073  0.0075  1.0000  -8.8174   0.0000   0.0000   0.0000   0.2436
  12.800   1.0832   0.06722   0.06388  -0.0094  0.0075  1.0000  -8.7724   0.0000   0.0000   0.0000   0.2454
  12.900   1.0778   0.07007   0.06679  -0.0114  0.0076  1.0000  -8.7256   0.0000   0.0000   0.0000   0.2472
  13.000   1.0724   0.07294   0.06971  -0.0134  0.0076  1.0000  -8.6768   0.0000   0.0000   0.0000   0.2490
  13.100   1.0668   0.07582   0.07264  -0.0153  0.0076  1.0000  -8.6257   0.0000   0.0000   0.0000   0.2507
  13.200   1.0612   0.07873   0.07559  -0.0172  0.0076  1.0000  -8.5717   0.0000   0.0000   0.0000   0.2525
  13.300   1.0554   0.08162   0.07852  -0.0190  0.0077  1.0000  -8.5148   0.0000   0.0000   0.0000   0.2541
  13.400   1.0494   0.08453   0.08147  -0.0208  0.0077  1.0000  -8.4536   0.0000   0.0000   0.0000   0.2558
  13.500   1.0432   0.08752   0.08450  -0.0226  0.0078  1.0000  -8.3859   0.0000   0.0000   0.0000   0.2576
  13.600   1.0368   0.09058   0.08761  -0.0244  0.0078  1.0000  -8.3102   0.0000   0.0000   0.0000   0.2593
  13.700   1.0297   0.09384   0.09091  -0.0263  0.0079  1.0000  -8.2181   0.0000   0.0000   0.0000   0.2613
  13.800   1.0217   0.09733   0.09446  -0.0283  0.0080  1.0000  -8.1013   0.0000   0.0000   0.0000   0.2634
  14.100   0.8018   0.16525   0.16263  -0.0592  0.0152  1.0000  -2.9188   0.0000   0.0000   0.0000   0.3133
  14.200   0.8006   0.16800   0.16537  -0.0602  0.0156  1.0000  -2.8204   0.0000   0.0000   0.0000   0.3147
  14.300   0.8002   0.17042   0.16779  -0.0611  0.0160  1.0000  -2.7489   0.0000   0.0000   0.0000   0.3159
  14.400   0.8006   0.17256   0.16992  -0.0619  0.0164  1.0000  -2.7015   0.0000   0.0000   0.0000   0.3167
  14.500   0.8016   0.17439   0.17174  -0.0625  0.0168  1.0000  -2.6790   0.0000   0.0000   0.0000   0.3173
  14.600   0.8026   0.17588   0.17323  -0.0628  0.0173  1.0000  -2.6875   0.0000   0.0000   0.0000   0.3174
  14.700   0.7989   0.18191   0.17927  -0.0626  0.0245  1.0000  -2.3765   0.0000   0.0000   0.0000   0.3177
  14.800   0.8002   0.18397   0.18132  -0.0634  0.0244  1.0000  -2.3462   0.0000   0.0000   0.0000   0.3186
  14.900   0.8017   0.18601   0.18336  -0.0643  0.0244  1.0000  -2.3241   0.0000   0.0000   0.0000   0.3194
  15.000   0.8032   0.18803   0.18538  -0.0652  0.0244  1.0000  -2.3074   0.0000   0.0000   0.0000   0.3204


