xflr5 v6.61

 Calculated polar for: S8025 (8%)

 1 1 Reynolds number fixed          Mach number fixed         

 xtrf =   1.000 (top)        1.000 (bottom)
 Mach =   0.000     Re =     0.300 e 6     Ncrit =   9.000

  alpha     CL        CD       CDp       Cm    Top Xtr Bot Xtr   Cpmin    Chinge    XCp    
 ------- -------- --------- --------- -------- ------- ------- -------- --------- ---------
 -10.000  -0.6879   0.11041   0.10759   0.0280  1.0000  0.0286  -2.3773   0.0000   0.0000   0.0000   0.2850
  -9.900  -0.6883   0.10812   0.10531   0.0266  1.0000  0.0287  -2.4181   0.0000   0.0000   0.0000   0.2830
  -9.800  -0.6889   0.10576   0.10296   0.0251  1.0000  0.0287  -2.4610   0.0000   0.0000   0.0000   0.2809
  -9.700  -0.6897   0.10332   0.10053   0.0235  1.0000  0.0287  -2.5069   0.0000   0.0000   0.0000   0.2786
  -9.600  -0.7015   0.09915   0.09640   0.0225  1.0000  0.0293  -2.6027   0.0000   0.0000   0.0000   0.2765
  -7.300  -0.7321   0.03308   0.02807  -0.0107  1.0000  0.0148  -4.4312   0.0000   0.0000   0.0000   0.2304
  -7.200  -0.7239   0.03181   0.02684  -0.0104  1.0000  0.0138  -4.3877   0.0000   0.0000   0.0000   0.2306
  -7.100  -0.7189   0.02964   0.02446  -0.0102  1.0000  0.0134  -4.4244   0.0000   0.0000   0.0000   0.2309
  -7.000  -0.7124   0.02787   0.02245  -0.0099  1.0000  0.0129  -4.4474   0.0000   0.0000   0.0000   0.2312
  -6.900  -0.7051   0.02626   0.02063  -0.0096  1.0000  0.0125  -4.4634   0.0000   0.0000   0.0000   0.2316
  -6.800  -0.6972   0.02477   0.01893  -0.0091  1.0000  0.0121  -4.4780   0.0000   0.0000   0.0000   0.2321
  -6.700  -0.6888   0.02340   0.01735  -0.0087  1.0000  0.0117  -4.4893   0.0000   0.0000   0.0000   0.2326
  -6.600  -0.6799   0.02218   0.01593  -0.0083  1.0000  0.0113  -4.4928   0.0000   0.0000   0.0000   0.2331
  -6.500  -0.6708   0.02110   0.01468  -0.0078  1.0000  0.0111  -4.4842   0.0000   0.0000   0.0000   0.2337
  -6.400  -0.6614   0.02019   0.01365  -0.0074  1.0000  0.0109  -4.4544   0.0000   0.0000   0.0000   0.2341
  -6.300  -0.6519   0.01938   0.01273  -0.0071  1.0000  0.0107  -4.4141   0.0000   0.0000   0.0000   0.2346
  -6.200  -0.6424   0.01866   0.01192  -0.0067  1.0000  0.0107  -4.3645   0.0000   0.0000   0.0000   0.2351
  -6.100  -0.6328   0.01800   0.01119  -0.0064  1.0000  0.0106  -4.3074   0.0000   0.0000   0.0000   0.2355
  -6.000  -0.6231   0.01739   0.01052  -0.0060  1.0000  0.0106  -4.2448   0.0000   0.0000   0.0000   0.2360
  -5.900  -0.6135   0.01683   0.00991  -0.0057  1.0000  0.0107  -4.1779   0.0000   0.0000   0.0000   0.2364
  -5.800  -0.6038   0.01631   0.00933  -0.0054  1.0000  0.0108  -4.1077   0.0000   0.0000   0.0000   0.2368
  -5.700  -0.5940   0.01582   0.00880  -0.0051  1.0000  0.0109  -4.0349   0.0000   0.0000   0.0000   0.2372
  -5.600  -0.5842   0.01535   0.00830  -0.0049  1.0000  0.0111  -3.9604   0.0000   0.0000   0.0000   0.2376
  -5.500  -0.5744   0.01492   0.00783  -0.0046  1.0000  0.0113  -3.8847   0.0000   0.0000   0.0000   0.2380
  -5.400  -0.5644   0.01452   0.00738  -0.0043  1.0000  0.0116  -3.8087   0.0000   0.0000   0.0000   0.2384
  -5.300  -0.5544   0.01414   0.00696  -0.0041  1.0000  0.0119  -3.7331   0.0000   0.0000   0.0000   0.2388
  -5.200  -0.5442   0.01378   0.00656  -0.0038  1.0000  0.0124  -3.6590   0.0000   0.0000   0.0000   0.2392
  -5.100  -0.5340   0.01345   0.00618  -0.0036  1.0000  0.0131  -3.5862   0.0000   0.0000   0.0000   0.2395
  -5.000  -0.5236   0.01316   0.00580  -0.0034  1.0000  0.0137  -3.5012   0.0000   0.0000   0.0000   0.2399
  -4.900  -0.5132   0.01284   0.00543  -0.0031  1.0000  0.0147  -3.4403   0.0000   0.0000   0.0000   0.2403
  -4.800  -0.5033   0.01235   0.00491  -0.0028  1.0000  0.0183  -3.4073   0.0000   0.0000   0.0000   0.2409
  -4.700  -0.4944   0.01150   0.00430  -0.0024  1.0000  0.0513  -3.4412   0.0000   0.0000   0.0000   0.2416
  -4.600  -0.4843   0.01120   0.00412  -0.0023  1.0000  0.0723  -3.3456   0.0000   0.0000   0.0000   0.2419
  -4.500  -0.4739   0.01102   0.00398  -0.0021  1.0000  0.0846  -3.2275   0.0000   0.0000   0.0000   0.2421
  -4.400  -0.4636   0.01082   0.00386  -0.0020  1.0000  0.0978  -3.1048   0.0000   0.0000   0.0000   0.2423
  -4.300  -0.4534   0.01059   0.00375  -0.0019  1.0000  0.1168  -2.9803   0.0000   0.0000   0.0000   0.2424
  -4.200  -0.4433   0.01036   0.00365  -0.0019  1.0000  0.1378  -2.8559   0.0000   0.0000   0.0000   0.2426
  -4.100  -0.4331   0.01015   0.00356  -0.0018  1.0000  0.1582  -2.7324   0.0000   0.0000   0.0000   0.2428
  -4.000  -0.4229   0.00996   0.00346  -0.0017  1.0000  0.1778  -2.6105   0.0000   0.0000   0.0000   0.2430
  -3.900  -0.4126   0.00976   0.00335  -0.0015  1.0000  0.1971  -2.4904   0.0000   0.0000   0.0000   0.2432
  -3.800  -0.4023   0.00958   0.00324  -0.0014  1.0000  0.2151  -2.3717   0.0000   0.0000   0.0000   0.2435
  -3.700  -0.3919   0.00942   0.00314  -0.0013  1.0000  0.2326  -2.2544   0.0000   0.0000   0.0000   0.2438
  -3.500  -0.3711   0.00909   0.00294  -0.0010  1.0000  0.2699  -2.0251   0.0000   0.0000   0.0000   0.2445
  -3.400  -0.3608   0.00892   0.00285  -0.0008  1.0000  0.2891  -1.9140   0.0000   0.0000   0.0000   0.2449
  -3.300  -0.3505   0.00876   0.00273  -0.0007  1.0000  0.3082  -1.8089   0.0000   0.0000   0.0000   0.2453
  -3.200  -0.3402   0.00861   0.00265  -0.0005  1.0000  0.3278  -1.7085   0.0000   0.0000   0.0000   0.2457
  -3.100  -0.3298   0.00847   0.00257  -0.0004  1.0000  0.3488  -1.6246   0.0000   0.0000   0.0000   0.2462
  -3.000  -0.3195   0.00832   0.00251  -0.0002  1.0000  0.3711  -1.5421   0.0000   0.0000   0.0000   0.2468
  -2.900  -0.3093   0.00818   0.00244  -0.0000  1.0000  0.3942  -1.4610   0.0000   0.0000   0.0000   0.2473
  -2.800  -0.2991   0.00803   0.00239   0.0002  1.0000  0.4174  -1.3814   0.0000   0.0000   0.0000   0.2480
  -2.700  -0.2890   0.00788   0.00233   0.0004  1.0000  0.4403  -1.3032   0.0000   0.0000   0.0000   0.2488
  -2.600  -0.2788   0.00775   0.00229   0.0006  1.0000  0.4627  -1.2263   0.0000   0.0000   0.0000   0.2497
  -2.500  -0.2687   0.00762   0.00224   0.0008  1.0000  0.4858  -1.1508   0.0000   0.0000   0.0000   0.2507
  -2.400  -0.2587   0.00749   0.00221   0.0011  1.0000  0.5106  -1.0769   0.0000   0.0000   0.0000   0.2518
  -2.300  -0.2487   0.00736   0.00218   0.0014  1.0000  0.5361  -1.0044   0.0000   0.0000   0.0000   0.2531
  -2.200  -0.2387   0.00724   0.00215   0.0017  1.0000  0.5612  -0.9334   0.0000   0.0000   0.0000   0.2546
  -2.100  -0.2288   0.00713   0.00213   0.0020  1.0000  0.5857  -0.8638   0.0000   0.0000   0.0000   0.2563
  -2.000  -0.2188   0.00702   0.00211   0.0023  1.0000  0.6090  -0.8138   0.0000   0.0000   0.0000   0.2581
  -1.900  -0.2088   0.00693   0.00209   0.0026  1.0000  0.6306  -0.7859   0.0000   0.0000   0.0000   0.2601
  -1.800  -0.1989   0.00683   0.00208   0.0029  1.0000  0.6511  -0.7600   0.0000   0.0000   0.0000   0.2625
  -1.700  -0.1891   0.00674   0.00203   0.0033  1.0000  0.6704  -0.7342   0.0000   0.0000   0.0000   0.2652
  -1.600  -0.1792   0.00665   0.00202   0.0036  1.0000  0.6891  -0.7086   0.0000   0.0000   0.0000   0.2681
  -1.500  -0.1693   0.00657   0.00201   0.0040  1.0000  0.7084  -0.6832   0.0000   0.0000   0.0000   0.2715
  -1.400  -0.1596   0.00649   0.00200   0.0044  1.0000  0.7283  -0.6581   0.0000   0.0000   0.0000   0.2754
  -1.300  -0.1501   0.00641   0.00201   0.0048  1.0000  0.7482  -0.6335   0.0000   0.0000   0.0000   0.2802
  -1.200  -0.1406   0.00633   0.00201   0.0053  1.0000  0.7686  -0.6090   0.0000   0.0000   0.0000   0.2858
  -1.100  -0.1313   0.00625   0.00202   0.0058  1.0000  0.7891  -0.5849   0.0000   0.0000   0.0000   0.2925
  -1.000  -0.1206   0.00618   0.00203   0.0061  0.9981  0.8102  -0.5600   0.0000   0.0000   0.0000   0.2984
  -0.900  -0.1033   0.00613   0.00205   0.0050  0.9870  0.8330  -0.5304   0.0000   0.0000   0.0000   0.2961
  -0.800  -0.0865   0.00608   0.00207   0.0040  0.9733  0.8552  -0.5015   0.0000   0.0000   0.0000   0.2943
  -0.700  -0.0695   0.00605   0.00209   0.0031  0.9572  0.8767  -0.4726   0.0000   0.0000   0.0000   0.2922
  -0.600  -0.0516   0.00604   0.00210   0.0020  0.9391  0.8964  -0.4430   0.0000   0.0000   0.0000   0.2868
  -0.500  -0.0341   0.00604   0.00210   0.0011  0.9171  0.9143  -0.4149   0.0000   0.0000   0.0000   0.2789
  -0.400  -0.0172   0.00605   0.00208   0.0003  0.8932  0.9298  -0.3923   0.0000   0.0000   0.0000   0.2629
  -0.300  -0.0019   0.00609   0.00205  -0.0002  0.8672  0.9434  -0.3902   0.0000   0.0000   0.0000   0.1180
  -0.200   0.0130   0.00615   0.00202  -0.0006  0.8413  0.9552  -0.4076   0.0000   0.0000   0.0000   0.2993
  -0.100   0.0280   0.00622   0.00199  -0.0012  0.8163  0.9657  -0.4251   0.0000   0.0000   0.0000   0.2908
   0.000   0.0436   0.00629   0.00196  -0.0019  0.7921  0.9755  -0.4431   0.0000   0.0000   0.0000   0.2919
   0.100   0.0599   0.00637   0.00194  -0.0028  0.7689  0.9848  -0.4624   0.0000   0.0000   0.0000   0.2951
   0.200   0.0768   0.00645   0.00191  -0.0039  0.7470  0.9934  -0.4833   0.0000   0.0000   0.0000   0.2992
   0.300   0.0937   0.00652   0.00187  -0.0050  0.7267  1.0000  -0.5042   0.0000   0.0000   0.0000   0.3022
   0.400   0.1034   0.00659   0.00185  -0.0047  0.7088  1.0000  -0.5194   0.0000   0.0000   0.0000   0.2941
   0.500   0.1133   0.00665   0.00184  -0.0044  0.6918  1.0000  -0.5348   0.0000   0.0000   0.0000   0.2875
   0.600   0.1231   0.00673   0.00182  -0.0041  0.6753  1.0000  -0.5503   0.0000   0.0000   0.0000   0.2818
   0.700   0.1330   0.00680   0.00181  -0.0038  0.6582  1.0000  -0.5659   0.0000   0.0000   0.0000   0.2771
   0.800   0.1430   0.00687   0.00180  -0.0036  0.6418  1.0000  -0.5816   0.0000   0.0000   0.0000   0.2732
   0.900   0.1529   0.00695   0.00179  -0.0033  0.6256  1.0000  -0.5973   0.0000   0.0000   0.0000   0.2696
   1.000   0.1630   0.00702   0.00179  -0.0031  0.6089  1.0000  -0.6139   0.0000   0.0000   0.0000   0.2667
   1.100   0.1731   0.00709   0.00179  -0.0028  0.5934  1.0000  -0.6316   0.0000   0.0000   0.0000   0.2642
   1.200   0.1831   0.00718   0.00179  -0.0025  0.5776  1.0000  -0.6492   0.0000   0.0000   0.0000   0.2618
   1.300   0.1933   0.00725   0.00181  -0.0023  0.5622  1.0000  -0.6673   0.0000   0.0000   0.0000   0.2599
   1.400   0.2034   0.00734   0.00182  -0.0021  0.5476  1.0000  -0.6872   0.0000   0.0000   0.0000   0.2581
   1.500   0.2137   0.00740   0.00183  -0.0019  0.5330  1.0000  -0.7097   0.0000   0.0000   0.0000   0.2566
   1.600   0.2239   0.00749   0.00184  -0.0017  0.5196  1.0000  -0.7322   0.0000   0.0000   0.0000   0.2552
   1.700   0.2343   0.00756   0.00186  -0.0015  0.5059  1.0000  -0.7550   0.0000   0.0000   0.0000   0.2541
   1.800   0.2446   0.00765   0.00187  -0.0013  0.4935  1.0000  -0.7779   0.0000   0.0000   0.0000   0.2529
   1.900   0.2550   0.00772   0.00190  -0.0011  0.4804  1.0000  -0.8012   0.0000   0.0000   0.0000   0.2520
   2.000   0.2653   0.00781   0.00192  -0.0009  0.4681  1.0000  -0.8271   0.0000   0.0000   0.0000   0.2511
   2.100   0.2758   0.00788   0.00195  -0.0008  0.4553  1.0000  -0.8534   0.0000   0.0000   0.0000   0.2503
   2.200   0.2860   0.00798   0.00198  -0.0006  0.4433  1.0000  -0.8797   0.0000   0.0000   0.0000   0.2495
   2.300   0.2966   0.00805   0.00201  -0.0004  0.4314  1.0000  -0.9065   0.0000   0.0000   0.0000   0.2489
   2.400   0.3069   0.00815   0.00205  -0.0003  0.4199  1.0000  -0.9332   0.0000   0.0000   0.0000   0.2483
   2.500   0.3176   0.00822   0.00209  -0.0001  0.4095  1.0000  -0.9604   0.0000   0.0000   0.0000   0.2478
   2.600   0.3280   0.00831   0.00213   0.0000  0.3983  1.0000  -0.9875   0.0000   0.0000   0.0000   0.2472
   2.700   0.3385   0.00840   0.00217   0.0002  0.3880  1.0000  -1.0149   0.0000   0.0000   0.0000   0.2468
   2.800   0.3491   0.00848   0.00222   0.0003  0.3770  1.0000  -1.0425   0.0000   0.0000   0.0000   0.2463
   2.900   0.3595   0.00860   0.00227   0.0005  0.3666  1.0000  -1.0701   0.0000   0.0000   0.0000   0.2459
   3.000   0.3702   0.00867   0.00237   0.0006  0.3560  1.0000  -1.0981   0.0000   0.0000   0.0000   0.2455
   3.100   0.3806   0.00878   0.00243   0.0007  0.3454  1.0000  -1.1273   0.0000   0.0000   0.0000   0.2451
   3.200   0.3913   0.00886   0.00249   0.0009  0.3357  1.0000  -1.1595   0.0000   0.0000   0.0000   0.2448
   3.300   0.4018   0.00896   0.00254   0.0010  0.3252  1.0000  -1.1918   0.0000   0.0000   0.0000   0.2445
   3.400   0.4123   0.00907   0.00261   0.0011  0.3156  1.0000  -1.2306   0.0000   0.0000   0.0000   0.2442
   3.500   0.4230   0.00915   0.00267   0.0012  0.3059  1.0000  -1.2744   0.0000   0.0000   0.0000   0.2440
   3.600   0.4334   0.00928   0.00274   0.0014  0.2964  1.0000  -1.3180   0.0000   0.0000   0.0000   0.2437
   3.700   0.4442   0.00935   0.00281   0.0015  0.2878  1.0000  -1.3627   0.0000   0.0000   0.0000   0.2435
   3.800   0.4547   0.00946   0.00288   0.0016  0.2786  1.0000  -1.4074   0.0000   0.0000   0.0000   0.2432
   3.900   0.4652   0.00959   0.00297   0.0017  0.2701  1.0000  -1.4523   0.0000   0.0000   0.0000   0.2430
   4.000   0.4760   0.00967   0.00304   0.0018  0.2615  1.0000  -1.4982   0.0000   0.0000   0.0000   0.2428
   4.100   0.4864   0.00981   0.00313   0.0019  0.2527  1.0000  -1.5496   0.0000   0.0000   0.0000   0.2426
   4.200   0.4971   0.00990   0.00322   0.0020  0.2448  1.0000  -1.6041   0.0000   0.0000   0.0000   0.2424
   4.300   0.5077   0.01000   0.00330   0.0021  0.2366  1.0000  -1.6591   0.0000   0.0000   0.0000   0.2422
   4.400   0.5181   0.01017   0.00341   0.0023  0.2286  1.0000  -1.7137   0.0000   0.0000   0.0000   0.2420
   4.500   0.5289   0.01024   0.00355   0.0024  0.2216  1.0000  -1.7707   0.0000   0.0000   0.0000   0.2418
   4.600   0.5395   0.01037   0.00364   0.0025  0.2140  1.0000  -1.8272   0.0000   0.0000   0.0000   0.2416
   4.700   0.5499   0.01053   0.00376   0.0026  0.2064  1.0000  -1.8833   0.0000   0.0000   0.0000   0.2414
   4.800   0.5607   0.01062   0.00387   0.0027  0.1991  1.0000  -1.9409   0.0000   0.0000   0.0000   0.2413
   4.900   0.5711   0.01077   0.00397   0.0028  0.1914  1.0000  -1.9982   0.0000   0.0000   0.0000   0.2411
   5.000   0.5817   0.01091   0.00410   0.0029  0.1842  1.0000  -2.0559   0.0000   0.0000   0.0000   0.2409
   5.100   0.5923   0.01102   0.00421   0.0030  0.1768  1.0000  -2.1147   0.0000   0.0000   0.0000   0.2408
   5.200   0.6025   0.01123   0.00436   0.0031  0.1692  1.0000  -2.1724   0.0000   0.0000   0.0000   0.2406
   5.300   0.6133   0.01131   0.00448   0.0032  0.1626  1.0000  -2.2323   0.0000   0.0000   0.0000   0.2405
   5.400   0.6238   0.01146   0.00459   0.0033  0.1553  1.0000  -2.2921   0.0000   0.0000   0.0000   0.2403
   5.500   0.6341   0.01164   0.00475   0.0034  0.1485  1.0000  -2.3513   0.0000   0.0000   0.0000   0.2401
   5.600   0.6448   0.01175   0.00487   0.0035  0.1418  1.0000  -2.4122   0.0000   0.0000   0.0000   0.2400
   5.700   0.6550   0.01196   0.00502   0.0036  0.1348  1.0000  -2.4720   0.0000   0.0000   0.0000   0.2399
   5.800   0.6657   0.01209   0.00518   0.0037  0.1289  1.0000  -2.5445   0.0000   0.0000   0.0000   0.2397
   5.900   0.6761   0.01225   0.00533   0.0038  0.1227  1.0000  -2.6572   0.0000   0.0000   0.0000   0.2395
   6.000   0.6862   0.01251   0.00553   0.0039  0.1164  1.0000  -2.7680   0.0000   0.0000   0.0000   0.2394
   6.100   0.6969   0.01262   0.00573   0.0040  0.1109  1.0000  -2.8901   0.0000   0.0000   0.0000   0.2392
   6.200   0.7071   0.01283   0.00590   0.0041  0.1051  1.0000  -3.0090   0.0000   0.0000   0.0000   0.2391
   6.300   0.7173   0.01306   0.00612   0.0042  0.0996  1.0000  -3.1260   0.0000   0.0000   0.0000   0.2389
   6.400   0.7279   0.01320   0.00629   0.0043  0.0944  1.0000  -3.2478   0.0000   0.0000   0.0000   0.2387
   6.500   0.7378   0.01348   0.00651   0.0045  0.0891  1.0000  -3.3663   0.0000   0.0000   0.0000   0.2386
   6.600   0.7482   0.01368   0.00675   0.0046  0.0848  1.0000  -3.4865   0.0000   0.0000   0.0000   0.2384
   6.700   0.7586   0.01386   0.00694   0.0047  0.0803  1.0000  -3.6102   0.0000   0.0000   0.0000   0.2382
   6.800   0.7682   0.01421   0.00724   0.0048  0.0755  1.0000  -3.7285   0.0000   0.0000   0.0000   0.2380
   6.900   0.7785   0.01444   0.00751   0.0050  0.0717  1.0000  -3.8502   0.0000   0.0000   0.0000   0.2378
   7.000   0.7888   0.01465   0.00775   0.0051  0.0678  1.0000  -3.9754   0.0000   0.0000   0.0000   0.2376
   7.100   0.7983   0.01503   0.00809   0.0053  0.0639  1.0000  -4.0946   0.0000   0.0000   0.0000   0.2374
   7.200   0.8080   0.01541   0.00849   0.0055  0.0608  1.0000  -4.2112   0.0000   0.0000   0.0000   0.2371
   7.300   0.8181   0.01565   0.00878   0.0057  0.0580  1.0000  -4.3359   0.0000   0.0000   0.0000   0.2369
   7.400   0.8281   0.01592   0.00907   0.0058  0.0553  1.0000  -4.4630   0.0000   0.0000   0.0000   0.2367
   7.500   0.8372   0.01639   0.00951   0.0060  0.0526  1.0000  -4.5816   0.0000   0.0000   0.0000   0.2365
   7.600   0.8464   0.01688   0.01002   0.0062  0.0505  1.0000  -4.6967   0.0000   0.0000   0.0000   0.2362
   7.700   0.8566   0.01709   0.01030   0.0064  0.0487  1.0000  -4.8275   0.0000   0.0000   0.0000   0.2360
   7.800   0.8667   0.01735   0.01063   0.0065  0.0468  1.0000  -4.9536   0.0000   0.0000   0.0000   0.2358
   7.900   0.8764   0.01765   0.01095   0.0067  0.0452  1.0000  -5.0832   0.0000   0.0000   0.0000   0.2356
   8.000   0.8859   0.01801   0.01133   0.0069  0.0438  1.0000  -5.2112   0.0000   0.0000   0.0000   0.2354
   8.100   0.8943   0.01865   0.01195   0.0071  0.0423  1.0000  -5.3250   0.0000   0.0000   0.0000   0.2351
   8.200   0.9024   0.01946   0.01280   0.0074  0.0411  1.0000  -5.4258   0.0000   0.0000   0.0000   0.2347
   8.300   0.9123   0.01976   0.01317   0.0076  0.0404  1.0000  -5.5548   0.0000   0.0000   0.0000   0.2344
   8.400   0.9220   0.02012   0.01362   0.0078  0.0395  1.0000  -5.6807   0.0000   0.0000   0.0000   0.2342
   8.500   0.9315   0.02051   0.01408   0.0081  0.0385  1.0000  -5.8063   0.0000   0.0000   0.0000   0.2339
   8.600   0.9410   0.02086   0.01448   0.0082  0.0374  1.0000  -5.9370   0.0000   0.0000   0.0000   0.2337
   8.700   0.9507   0.02111   0.01476   0.0084  0.0361  1.0000  -6.0781   0.0000   0.0000   0.0000   0.2336
   8.800   0.9603   0.02130   0.01495   0.0084  0.0347  1.0000  -6.2298   0.0000   0.0000   0.0000   0.2335
   8.900   0.9681   0.02196   0.01560   0.0086  0.0331  1.0000  -6.3558   0.0000   0.0000   0.0000   0.2333
   9.000   0.9766   0.02253   0.01625   0.0088  0.0318  1.0000  -6.4772   0.0000   0.0000   0.0000   0.2330
   9.100   0.9869   0.02255   0.01635   0.0088  0.0305  1.0000  -6.6335   0.0000   0.0000   0.0000   0.2329
   9.200   0.9968   0.02265   0.01651   0.0089  0.0290  1.0000  -6.7884   0.0000   0.0000   0.0000   0.2328
   9.300   1.0065   0.02282   0.01670   0.0090  0.0276  1.0000  -6.9417   0.0000   0.0000   0.0000   0.2327
   9.400   1.0155   0.02311   0.01701   0.0090  0.0265  1.0000  -7.0863   0.0000   0.0000   0.0000   0.2326
   9.500   1.0224   0.02391   0.01785   0.0093  0.0252  1.0000  -7.1953   0.0000   0.0000   0.0000   0.2323
   9.600   1.0295   0.02476   0.01880   0.0095  0.0240  1.0000  -7.2811   0.0000   0.0000   0.0000   0.2320
   9.700   1.0391   0.02495   0.01911   0.0097  0.0227  1.0000  -7.4053   0.0000   0.0000   0.0000   0.2318
   9.800   1.0483   0.02518   0.01941   0.0098  0.0209  1.0000  -7.5245   0.0000   0.0000   0.0000   0.2317
   9.900   1.0571   0.02542   0.01964   0.0098  0.0193  1.0000  -7.6535   0.0000   0.0000   0.0000   0.2316
  10.000   1.0601   0.02700   0.02132   0.0102  0.0173  1.0000  -7.6279   0.0000   0.0000   0.0000   0.2311
  10.100   1.0684   0.02747   0.02193   0.0104  0.0158  1.0000  -7.6712   0.0000   0.0000   0.0000   0.2308
  10.200   1.0756   0.02810   0.02264   0.0106  0.0146  1.0000  -7.7307   0.0000   0.0000   0.0000   0.2306
  10.300   1.0826   0.02870   0.02329   0.0108  0.0139  1.0000  -7.8133   0.0000   0.0000   0.0000   0.2303
  10.400   1.0888   0.02943   0.02406   0.0110  0.0133  1.0000  -7.8950   0.0000   0.0000   0.0000   0.2301
  10.500   1.0930   0.03051   0.02522   0.0113  0.0128  1.0000  -7.9440   0.0000   0.0000   0.0000   0.2298
  10.600   1.0940   0.03219   0.02702   0.0116  0.0124  1.0000  -7.9321   0.0000   0.0000   0.0000   0.2293
  10.700   1.0914   0.03449   0.02952   0.0120  0.0121  1.0000  -7.8589   0.0000   0.0000   0.0000   0.2289
  10.800   1.0923   0.03602   0.03120   0.0123  0.0120  1.0000  -7.8570   0.0000   0.0000   0.0000   0.2285
  10.900   1.0961   0.03692   0.03222   0.0124  0.0118  1.0000  -7.9146   0.0000   0.0000   0.0000   0.2283
  11.000   1.0991   0.03790   0.03333   0.0125  0.0117  1.0000  -7.9659   0.0000   0.0000   0.0000   0.2281
  11.100   1.1011   0.03896   0.03450   0.0126  0.0115  1.0000  -8.0107   0.0000   0.0000   0.0000   0.2279
  11.200   1.1022   0.04009   0.03575   0.0127  0.0113  1.0000  -8.0484   0.0000   0.0000   0.0000   0.2278
  11.300   1.1020   0.04128   0.03705   0.0127  0.0112  1.0000  -8.0771   0.0000   0.0000   0.0000   0.2276
  11.400   1.0999   0.04250   0.03838   0.0127  0.0111  1.0000  -8.0986   0.0000   0.0000   0.0000   0.2274
  11.500   1.0967   0.04389   0.03986   0.0124  0.0110  1.0000  -8.1159   0.0000   0.0000   0.0000   0.2275
  11.600   1.0927   0.04552   0.04159   0.0116  0.0109  1.0000  -8.1185   0.0000   0.0000   0.0000   0.2281
  11.700   1.0882   0.04745   0.04361   0.0101  0.0108  1.0000  -8.1070   0.0000   0.0000   0.0000   0.2293
  11.800   1.0832   0.04969   0.04594   0.0082  0.0108  1.0000  -8.0820   0.0000   0.0000   0.0000   0.2308
  11.900   1.0778   0.05223   0.04858   0.0058  0.0108  1.0000  -8.0428   0.0000   0.0000   0.0000   0.2328
  12.000   1.0717   0.05505   0.05149   0.0033  0.0109  1.0000  -7.9881   0.0000   0.0000   0.0000   0.2350
  12.100   1.0649   0.05814   0.05467   0.0005  0.0109  1.0000  -7.9178   0.0000   0.0000   0.0000   0.2374
  12.200   1.0573   0.06146   0.05807  -0.0023  0.0110  1.0000  -7.8320   0.0000   0.0000   0.0000   0.2400
  12.300   1.0488   0.06496   0.06165  -0.0052  0.0111  1.0000  -7.7306   0.0000   0.0000   0.0000   0.2426
  12.400   1.0395   0.06862   0.06538  -0.0080  0.0112  1.0000  -7.6160   0.0000   0.0000   0.0000   0.2452
  12.500   1.0296   0.07244   0.06927  -0.0108  0.0114  1.0000  -7.4887   0.0000   0.0000   0.0000   0.2480
  12.600   1.0189   0.07642   0.07330  -0.0137  0.0115  1.0000  -7.3489   0.0000   0.0000   0.0000   0.2508
  12.700   1.0075   0.08054   0.07747  -0.0165  0.0117  1.0000  -7.2079   0.0000   0.0000   0.0000   0.2536
  12.800   0.9952   0.08478   0.08175  -0.0192  0.0118  1.0000  -7.0535   0.0000   0.0000   0.0000   0.2565
  12.900   0.9819   0.08922   0.08624  -0.0220  0.0119  1.0000  -6.8818   0.0000   0.0000   0.0000   0.2596
  13.300   0.9545   0.10270   0.09987  -0.0302  0.0122  1.0000  -6.5354   0.0000   0.0000   0.0000   0.2685
  13.400   0.9486   0.10603   0.10323  -0.0321  0.0123  1.0000  -6.4537   0.0000   0.0000   0.0000   0.2708
  13.500   0.9412   0.10975   0.10699  -0.0343  0.0125  1.0000  -6.3436   0.0000   0.0000   0.0000   0.2733
  13.700   0.8117   0.15215   0.14937  -0.0536  0.0168  1.0000  -3.4930   0.0000   0.0000   0.0000   0.3054
  13.800   0.8087   0.15535   0.15255  -0.0548  0.0168  1.0000  -3.3627   0.0000   0.0000   0.0000   0.3072
  13.900   0.8066   0.15824   0.15543  -0.0559  0.0169  1.0000  -3.2541   0.0000   0.0000   0.0000   0.3088
  14.000   0.8050   0.16090   0.15809  -0.0570  0.0170  1.0000  -3.1633   0.0000   0.0000   0.0000   0.3101
  14.100   0.8040   0.16338   0.16055  -0.0579  0.0171  1.0000  -3.0878   0.0000   0.0000   0.0000   0.3113
  14.200   0.8035   0.16567   0.16284  -0.0587  0.0173  1.0000  -3.0278   0.0000   0.0000   0.0000   0.3124
  14.300   0.8038   0.16714   0.16433  -0.0588  0.0178  1.0000  -3.0274   0.0000   0.0000   0.0000   0.3123
  15.000   0.8006   0.18895   0.18608  -0.0673  0.0259  1.0000  -2.1577   0.0000   0.0000   0.0000   0.3235


