xflr5 v6.61

 Calculated polar for: S8025 (8%)

 1 1 Reynolds number fixed          Mach number fixed         

 xtrf =   1.000 (top)        1.000 (bottom)
 Mach =   0.000     Re =     0.075 e 6     Ncrit =   9.000

  alpha     CL        CD       CDp       Cm    Top Xtr Bot Xtr   Cpmin    Chinge    XCp    
 ------- -------- --------- --------- -------- ------- ------- -------- --------- ---------
 -10.000  -0.6767   0.12592   0.12042   0.0341  1.0000  0.1164  -1.8043   0.0000   0.0000   0.0000   0.2957
  -9.900  -0.6701   0.12403   0.11853   0.0349  1.0000  0.1174  -1.7814   0.0000   0.0000   0.0000   0.2974
  -9.800  -0.6651   0.12235   0.11685   0.0353  1.0000  0.1187  -1.7672   0.0000   0.0000   0.0000   0.2985
  -9.700  -0.6609   0.12085   0.11534   0.0355  1.0000  0.1207  -1.7552   0.0000   0.0000   0.0000   0.2992
  -9.600  -0.6589   0.11940   0.11390   0.0352  1.0000  0.1231  -1.7552   0.0000   0.0000   0.0000   0.2990
  -9.500  -0.6592   0.11793   0.11245   0.0344  1.0000  0.1255  -1.7690   0.0000   0.0000   0.0000   0.2977
  -9.400  -0.6621   0.11647   0.11102   0.0328  1.0000  0.1275  -1.7972   0.0000   0.0000   0.0000   0.2952
  -9.300  -0.6678   0.11508   0.10967   0.0305  1.0000  0.1290  -1.8404   0.0000   0.0000   0.0000   0.2913
  -9.200  -0.6757   0.11377   0.10840   0.0275  1.0000  0.1299  -1.8947   0.0000   0.0000   0.0000   0.2865
  -9.100  -0.6857   0.11249   0.10717   0.0240  1.0000  0.1305  -1.9582   0.0000   0.0000   0.0000   0.2808
  -9.000  -0.6982   0.11116   0.10591   0.0195  1.0000  0.1309  -2.0322   0.0000   0.0000   0.0000   0.2739
  -8.900  -0.6549   0.10830   0.10294   0.0313  1.0000  0.1394  -1.8137   0.0000   0.0000   0.0000   0.2937
  -8.800  -0.6553   0.10689   0.10154   0.0304  1.0000  0.1425  -1.8259   0.0000   0.0000   0.0000   0.2924
  -8.700  -0.6587   0.10536   0.10005   0.0287  1.0000  0.1447  -1.8543   0.0000   0.0000   0.0000   0.2896
  -8.600  -0.6639   0.10380   0.09853   0.0265  1.0000  0.1460  -1.8918   0.0000   0.0000   0.0000   0.2860
  -8.500  -0.6699   0.10217   0.09694   0.0239  1.0000  0.1468  -1.9334   0.0000   0.0000   0.0000   0.2819
  -8.400  -0.6896   0.08572   0.08046   0.0087  1.0000  0.0692  -2.5378   0.0000   0.0000   0.0000   0.2582
  -8.300  -0.6854   0.08444   0.07919   0.0101  1.0000  0.0668  -2.5137   0.0000   0.0000   0.0000   0.2605
  -8.200  -0.7126   0.07428   0.06881  -0.0037  1.0000  0.0581  -2.9713   0.0000   0.0000   0.0000   0.2404
  -8.100  -0.7056   0.07306   0.06766  -0.0024  1.0000  0.0571  -2.9169   0.0000   0.0000   0.0000   0.2421
  -8.000  -0.7038   0.07116   0.06576  -0.0028  1.0000  0.0562  -2.9197   0.0000   0.0000   0.0000   0.2416
  -7.900  -0.7037   0.06887   0.06344  -0.0038  1.0000  0.0552  -2.9475   0.0000   0.0000   0.0000   0.2402
  -7.800  -0.7046   0.06622   0.06074  -0.0052  1.0000  0.0540  -2.9965   0.0000   0.0000   0.0000   0.2383
  -7.700  -0.7070   0.06303   0.05744  -0.0070  1.0000  0.0524  -3.0780   0.0000   0.0000   0.0000   0.2358
  -7.600  -0.7210   0.05652   0.05013  -0.0112  1.0000  0.0473  -3.4629   0.0000   0.0000   0.0000   0.2300
  -7.500  -0.7170   0.05441   0.04798  -0.0113  1.0000  0.0469  -3.4639   0.0000   0.0000   0.0000   0.2297
  -7.400  -0.7132   0.05234   0.04583  -0.0116  1.0000  0.0465  -3.4735   0.0000   0.0000   0.0000   0.2293
  -7.300  -0.7093   0.05029   0.04366  -0.0118  1.0000  0.0461  -3.4886   0.0000   0.0000   0.0000   0.2289
  -7.200  -0.7050   0.04825   0.04147  -0.0120  1.0000  0.0457  -3.5078   0.0000   0.0000   0.0000   0.2286
  -7.100  -0.7003   0.04622   0.03927  -0.0121  1.0000  0.0453  -3.5298   0.0000   0.0000   0.0000   0.2283
  -7.000  -0.6951   0.04423   0.03708  -0.0122  1.0000  0.0450  -3.5535   0.0000   0.0000   0.0000   0.2281
  -6.900  -0.6894   0.04229   0.03492  -0.0122  1.0000  0.0448  -3.5775   0.0000   0.0000   0.0000   0.2280
  -6.800  -0.6832   0.04047   0.03286  -0.0121  1.0000  0.0450  -3.5990   0.0000   0.0000   0.0000   0.2279
  -6.700  -0.6763   0.03882   0.03093  -0.0120  1.0000  0.0457  -3.6171   0.0000   0.0000   0.0000   0.2280
  -6.600  -0.6688   0.03741   0.02916  -0.0117  1.0000  0.0468  -3.6356   0.0000   0.0000   0.0000   0.2281
  -6.500  -0.6617   0.03584   0.02732  -0.0115  1.0000  0.0482  -3.6406   0.0000   0.0000   0.0000   0.2282
  -6.400  -0.6536   0.03546   0.02726  -0.0117  1.0000  0.0521  -3.5002   0.0000   0.0000   0.0000   0.2279
  -6.300  -0.6449   0.03460   0.02624  -0.0115  1.0000  0.0550  -3.4663   0.0000   0.0000   0.0000   0.2281
  -6.200  -0.6361   0.03340   0.02473  -0.0111  1.0000  0.0571  -3.4729   0.0000   0.0000   0.0000   0.2284
  -6.100  -0.6267   0.03228   0.02324  -0.0107  1.0000  0.0585  -3.4884   0.0000   0.0000   0.0000   0.2288
  -6.000  -0.6180   0.03054   0.02139  -0.0105  1.0000  0.0597  -3.4921   0.0000   0.0000   0.0000   0.2290
  -5.900  -0.6087   0.02925   0.02009  -0.0102  1.0000  0.0615  -3.4673   0.0000   0.0000   0.0000   0.2292
  -5.800  -0.5989   0.02824   0.01902  -0.0099  1.0000  0.0638  -3.4444   0.0000   0.0000   0.0000   0.2295
  -5.700  -0.5887   0.02721   0.01787  -0.0095  1.0000  0.0668  -3.4362   0.0000   0.0000   0.0000   0.2299
  -5.600  -0.5779   0.02620   0.01658  -0.0090  1.0000  0.0704  -3.4499   0.0000   0.0000   0.0000   0.2306
  -5.500  -0.5686   0.02494   0.01544  -0.0086  1.0000  0.0751  -3.4289   0.0000   0.0000   0.0000   0.2310
  -5.400  -0.5585   0.02434   0.01469  -0.0083  1.0000  0.0852  -3.4076   0.0000   0.0000   0.0000   0.2314
  -5.300  -0.5492   0.02383   0.01417  -0.0080  1.0000  0.0988  -3.3677   0.0000   0.0000   0.0000   0.2317
  -5.200  -0.5400   0.02284   0.01323  -0.0076  1.0000  0.1132  -3.3383   0.0000   0.0000   0.0000   0.2323
  -5.100  -0.5313   0.02211   0.01263  -0.0073  1.0000  0.1331  -3.2918   0.0000   0.0000   0.0000   0.2327
  -5.000  -0.5221   0.02145   0.01206  -0.0070  1.0000  0.1516  -3.2328   0.0000   0.0000   0.0000   0.2332
  -4.900  -0.5127   0.02095   0.01161  -0.0066  1.0000  0.1699  -3.1551   0.0000   0.0000   0.0000   0.2336
  -4.800  -0.5031   0.02054   0.01119  -0.0063  1.0000  0.1873  -3.0698   0.0000   0.0000   0.0000   0.2341
  -4.700  -0.4937   0.02002   0.01080  -0.0060  1.0000  0.2033  -2.9771   0.0000   0.0000   0.0000   0.2346
  -4.600  -0.4842   0.01949   0.01037  -0.0057  1.0000  0.2190  -2.8836   0.0000   0.0000   0.0000   0.2351
  -4.500  -0.4744   0.01898   0.00991  -0.0053  1.0000  0.2358  -2.7903   0.0000   0.0000   0.0000   0.2356
  -4.400  -0.4645   0.01848   0.00944  -0.0050  1.0000  0.2537  -2.6971   0.0000   0.0000   0.0000   0.2361
  -4.300  -0.4546   0.01806   0.00905  -0.0047  1.0000  0.2734  -2.6012   0.0000   0.0000   0.0000   0.2367
  -4.200  -0.4451   0.01761   0.00871  -0.0043  1.0000  0.2942  -2.5033   0.0000   0.0000   0.0000   0.2374
  -4.100  -0.4357   0.01715   0.00838  -0.0039  1.0000  0.3162  -2.4059   0.0000   0.0000   0.0000   0.2381
  -4.000  -0.4263   0.01672   0.00807  -0.0034  1.0000  0.3403  -2.3243   0.0000   0.0000   0.0000   0.2390
  -3.900  -0.4169   0.01632   0.00778  -0.0030  1.0000  0.3671  -2.2473   0.0000   0.0000   0.0000   0.2399
  -3.800  -0.4077   0.01593   0.00754  -0.0025  1.0000  0.3955  -2.1701   0.0000   0.0000   0.0000   0.2410
  -3.700  -0.3988   0.01555   0.00735  -0.0019  1.0000  0.4248  -2.0925   0.0000   0.0000   0.0000   0.2424
  -3.600  -0.3901   0.01521   0.00718  -0.0013  1.0000  0.4561  -2.0150   0.0000   0.0000   0.0000   0.2440
  -3.500  -0.3813   0.01490   0.00703  -0.0006  1.0000  0.4891  -1.9375   0.0000   0.0000   0.0000   0.2458
  -3.400  -0.3724   0.01464   0.00688   0.0001  1.0000  0.5242  -1.8594   0.0000   0.0000   0.0000   0.2476
  -3.300  -0.3639   0.01437   0.00673   0.0010  1.0000  0.5567  -1.7787   0.0000   0.0000   0.0000   0.2501
  -3.200  -0.3555   0.01414   0.00664   0.0019  1.0000  0.5892  -1.7040   0.0000   0.0000   0.0000   0.2529
  -3.100  -0.3473   0.01394   0.00655   0.0030  1.0000  0.6217  -1.6311   0.0000   0.0000   0.0000   0.2560
  -3.000  -0.3391   0.01376   0.00646   0.0040  1.0000  0.6542  -1.5590   0.0000   0.0000   0.0000   0.2593
  -2.900  -0.3312   0.01359   0.00640   0.0052  1.0000  0.6836  -1.4877   0.0000   0.0000   0.0000   0.2633
  -2.800  -0.3234   0.01344   0.00634   0.0065  1.0000  0.7125  -1.4175   0.0000   0.0000   0.0000   0.2677
  -2.700  -0.3158   0.01330   0.00629   0.0079  1.0000  0.7412  -1.3486   0.0000   0.0000   0.0000   0.2726
  -2.600  -0.3082   0.01318   0.00623   0.0093  1.0000  0.7698  -1.2809   0.0000   0.0000   0.0000   0.2777
  -2.500  -0.3006   0.01307   0.00617   0.0107  1.0000  0.7982  -1.2138   0.0000   0.0000   0.0000   0.2832
  -2.400  -0.2921   0.01298   0.00613   0.0121  1.0000  0.8248  -1.1440   0.0000   0.0000   0.0000   0.2890
  -2.300  -0.2822   0.01291   0.00607   0.0132  1.0000  0.8524  -1.0707   0.0000   0.0000   0.0000   0.2944
  -2.200  -0.2693   0.01286   0.00602   0.0137  1.0000  0.8806  -0.9883   0.0000   0.0000   0.0000   0.2985
  -2.100  -0.2512   0.01283   0.00595   0.0131  1.0000  0.9087  -0.8905   0.0000   0.0000   0.0000   0.2999
  -2.000  -0.2249   0.01284   0.00586   0.0108  1.0000  0.9346  -0.7924   0.0000   0.0000   0.0000   0.2959
  -1.900  -0.1928   0.01283   0.00571   0.0072  1.0000  0.9576  -0.7363   0.0000   0.0000   0.0000   0.2848
  -1.800  -0.1547   0.01277   0.00544   0.0021  1.0000  0.9772  -0.6754   0.0000   0.0000   0.0000   0.2608
  -1.700  -0.1159   0.01263   0.00516  -0.0035  1.0000  0.9963  -0.6151   0.0000   0.0000   0.0000   0.2166
  -1.600  -0.1026   0.01245   0.00492  -0.0047  1.0000  1.0000  -0.5884   0.0000   0.0000   0.0000   0.2014
  -1.500  -0.0958   0.01230   0.00474  -0.0045  1.0000  1.0000  -0.5703   0.0000   0.0000   0.0000   0.1995
  -1.400  -0.0887   0.01217   0.00458  -0.0043  1.0000  1.0000  -0.5536   0.0000   0.0000   0.0000   0.1979
  -1.300  -0.0815   0.01206   0.00445  -0.0041  1.0000  1.0000  -0.5365   0.0000   0.0000   0.0000   0.1964
  -1.200  -0.0741   0.01197   0.00433  -0.0038  1.0000  1.0000  -0.5192   0.0000   0.0000   0.0000   0.1950
  -1.100  -0.0666   0.01189   0.00423  -0.0036  1.0000  1.0000  -0.5016   0.0000   0.0000   0.0000   0.1935
  -1.000  -0.0588   0.01183   0.00414  -0.0033  1.0000  1.0000  -0.4838   0.0000   0.0000   0.0000   0.1914
  -0.900  -0.0508   0.01178   0.00406  -0.0030  1.0000  1.0000  -0.4658   0.0000   0.0000   0.0000   0.1885
  -0.800  -0.0428   0.01174   0.00400  -0.0027  1.0000  1.0000  -0.4477   0.0000   0.0000   0.0000   0.1846
  -0.700  -0.0346   0.01171   0.00395  -0.0023  1.0000  1.0000  -0.4296   0.0000   0.0000   0.0000   0.1790
  -0.600  -0.0264   0.01168   0.00391  -0.0020  1.0000  1.0000  -0.4135   0.0000   0.0000   0.0000   0.1698
  -0.500  -0.0182   0.01167   0.00388  -0.0017  1.0000  1.0000  -0.3991   0.0000   0.0000   0.0000   0.1521
  -0.400  -0.0099   0.01166   0.00386  -0.0014  1.0000  1.0000  -0.3847   0.0000   0.0000   0.0000   0.1042
  -0.300  -0.0015   0.01165   0.00383  -0.0011  1.0000  1.0000  -0.3874   0.0000   0.0000   0.0000  -0.4660
  -0.200   0.0068   0.01165   0.00382  -0.0007  1.0000  1.0000  -0.3992   0.0000   0.0000   0.0000   0.3616
  -0.100   0.0150   0.01166   0.00383  -0.0004  1.0000  1.0000  -0.4110   0.0000   0.0000   0.0000   0.2777
   0.000   0.0231   0.01167   0.00385  -0.0001  1.0000  1.0000  -0.4227   0.0000   0.0000   0.0000   0.2532
   0.100   0.0311   0.01169   0.00388   0.0002  1.0000  1.0000  -0.4342   0.0000   0.0000   0.0000   0.2412
   0.200   0.0388   0.01173   0.00393   0.0005  1.0000  1.0000  -0.4455   0.0000   0.0000   0.0000   0.2339
   0.300   0.0460   0.01178   0.00399   0.0009  1.0000  1.0000  -0.4564   0.0000   0.0000   0.0000   0.2286
   0.400   0.0528   0.01184   0.00408   0.0012  1.0000  1.0000  -0.4676   0.0000   0.0000   0.0000   0.2246
   0.500   0.0589   0.01194   0.00419   0.0016  1.0000  1.0000  -0.4783   0.0000   0.0000   0.0000   0.2208
   0.600   0.0641   0.01207   0.00434   0.0019  1.0000  1.0000  -0.4879   0.0000   0.0000   0.0000   0.2173
   0.700   0.0769   0.01225   0.00454   0.0007  0.9948  1.0000  -0.5036   0.0000   0.0000   0.0000   0.2382
   0.800   0.1151   0.01236   0.00470  -0.0048  0.9742  1.0000  -0.5415   0.0000   0.0000   0.0000   0.2898
   0.900   0.1503   0.01241   0.00481  -0.0095  0.9517  1.0000  -0.5777   0.0000   0.0000   0.0000   0.3112
   1.000   0.1802   0.01244   0.00488  -0.0129  0.9255  1.0000  -0.6119   0.0000   0.0000   0.0000   0.3196
   1.100   0.2028   0.01249   0.00492  -0.0146  0.8970  1.0000  -0.6408   0.0000   0.0000   0.0000   0.3203
   1.200   0.2186   0.01257   0.00499  -0.0150  0.8690  1.0000  -0.6648   0.0000   0.0000   0.0000   0.3167
   1.300   0.2302   0.01268   0.00503  -0.0144  0.8434  1.0000  -0.6862   0.0000   0.0000   0.0000   0.3108
   1.400   0.2396   0.01280   0.00507  -0.0135  0.8199  1.0000  -0.7064   0.0000   0.0000   0.0000   0.3043
   1.500   0.2480   0.01294   0.00512  -0.0123  0.7975  1.0000  -0.7266   0.0000   0.0000   0.0000   0.2978
   1.600   0.2561   0.01309   0.00518  -0.0113  0.7758  1.0000  -0.7467   0.0000   0.0000   0.0000   0.2920
   1.700   0.2644   0.01324   0.00525  -0.0103  0.7547  1.0000  -0.7668   0.0000   0.0000   0.0000   0.2869
   1.800   0.2730   0.01340   0.00533  -0.0094  0.7342  1.0000  -0.7872   0.0000   0.0000   0.0000   0.2824
   1.900   0.2817   0.01356   0.00542  -0.0086  0.7146  1.0000  -0.8080   0.0000   0.0000   0.0000   0.2784
   2.000   0.2904   0.01373   0.00550  -0.0078  0.6964  1.0000  -0.8295   0.0000   0.0000   0.0000   0.2746
   2.100   0.2991   0.01390   0.00556  -0.0069  0.6797  1.0000  -0.8532   0.0000   0.0000   0.0000   0.2708
   2.200   0.3082   0.01406   0.00567  -0.0063  0.6607  1.0000  -0.8770   0.0000   0.0000   0.0000   0.2682
   2.300   0.3174   0.01424   0.00578  -0.0057  0.6435  1.0000  -0.9011   0.0000   0.0000   0.0000   0.2656
   2.400   0.3264   0.01443   0.00584  -0.0049  0.6284  1.0000  -0.9257   0.0000   0.0000   0.0000   0.2627
   2.500   0.3360   0.01458   0.00597  -0.0045  0.6102  1.0000  -0.9503   0.0000   0.0000   0.0000   0.2609
   2.600   0.3455   0.01477   0.00608  -0.0039  0.5945  1.0000  -0.9753   0.0000   0.0000   0.0000   0.2590
   2.700   0.3549   0.01494   0.00617  -0.0034  0.5793  1.0000  -1.0004   0.0000   0.0000   0.0000   0.2570
   2.800   0.3647   0.01513   0.00632  -0.0030  0.5632  1.0000  -1.0256   0.0000   0.0000   0.0000   0.2556
   2.900   0.3740   0.01533   0.00639  -0.0023  0.5501  1.0000  -1.0512   0.0000   0.0000   0.0000   0.2537
   3.000   0.3840   0.01550   0.00666  -0.0020  0.5334  1.0000  -1.0769   0.0000   0.0000   0.0000   0.2527
   3.100   0.3936   0.01572   0.00677  -0.0015  0.5206  1.0000  -1.1063   0.0000   0.0000   0.0000   0.2512
   3.200   0.4035   0.01589   0.00694  -0.0012  0.5055  1.0000  -1.1357   0.0000   0.0000   0.0000   0.2502
   3.300   0.4132   0.01612   0.00708  -0.0007  0.4930  1.0000  -1.1672   0.0000   0.0000   0.0000   0.2491
   3.400   0.4232   0.01631   0.00725  -0.0004  0.4786  1.0000  -1.2016   0.0000   0.0000   0.0000   0.2482
   3.500   0.4330   0.01655   0.00741  -0.0000  0.4666  1.0000  -1.2388   0.0000   0.0000   0.0000   0.2472
   3.600   0.4431   0.01674   0.00760   0.0003  0.4529  1.0000  -1.2791   0.0000   0.0000   0.0000   0.2465
   3.700   0.4528   0.01700   0.00777   0.0007  0.4417  1.0000  -1.3201   0.0000   0.0000   0.0000   0.2455
   3.800   0.4630   0.01720   0.00799   0.0009  0.4282  1.0000  -1.3607   0.0000   0.0000   0.0000   0.2450
   3.900   0.4727   0.01748   0.00814   0.0014  0.4177  1.0000  -1.4026   0.0000   0.0000   0.0000   0.2441
   4.000   0.4830   0.01769   0.00841   0.0015  0.4043  1.0000  -1.4433   0.0000   0.0000   0.0000   0.2437
   4.100   0.4927   0.01796   0.00856   0.0020  0.3943  1.0000  -1.4860   0.0000   0.0000   0.0000   0.2428
   4.200   0.5030   0.01821   0.00888   0.0021  0.3816  1.0000  -1.5267   0.0000   0.0000   0.0000   0.2425
   4.300   0.5128   0.01845   0.00902   0.0025  0.3711  1.0000  -1.5738   0.0000   0.0000   0.0000   0.2418
   4.400   0.5229   0.01873   0.00934   0.0027  0.3594  1.0000  -1.6225   0.0000   0.0000   0.0000   0.2414
   4.500   0.5329   0.01897   0.00953   0.0030  0.3486  1.0000  -1.6731   0.0000   0.0000   0.0000   0.2409
   4.600   0.5429   0.01930   0.00991   0.0033  0.3385  1.0000  -1.7229   0.0000   0.0000   0.0000   0.2404
   4.700   0.5530   0.01954   0.01017   0.0036  0.3272  1.0000  -1.7730   0.0000   0.0000   0.0000   0.2400
   4.800   0.5627   0.01990   0.01038   0.0039  0.3182  1.0000  -1.8251   0.0000   0.0000   0.0000   0.2395
   4.900   0.5729   0.02015   0.01077   0.0041  0.3067  1.0000  -1.8733   0.0000   0.0000   0.0000   0.2392
   5.000   0.5828   0.02044   0.01095   0.0044  0.2977  1.0000  -1.9262   0.0000   0.0000   0.0000   0.2387
   5.100   0.5929   0.02080   0.01140   0.0046  0.2873  1.0000  -1.9742   0.0000   0.0000   0.0000   0.2384
   5.200   0.6028   0.02106   0.01163   0.0049  0.2777  1.0000  -2.0261   0.0000   0.0000   0.0000   0.2380
   5.300   0.6127   0.02151   0.01202   0.0051  0.2693  1.0000  -2.0763   0.0000   0.0000   0.0000   0.2377
   5.400   0.6228   0.02181   0.01243   0.0053  0.2592  1.0000  -2.1246   0.0000   0.0000   0.0000   0.2374
   5.500   0.6325   0.02218   0.01263   0.0056  0.2512  1.0000  -2.1789   0.0000   0.0000   0.0000   0.2369
   5.600   0.6425   0.02258   0.01321   0.0058  0.2413  1.0000  -2.2237   0.0000   0.0000   0.0000   0.2367
   5.700   0.6524   0.02290   0.01348   0.0061  0.2330  1.0000  -2.2751   0.0000   0.0000   0.0000   0.2364
   5.800   0.6623   0.02347   0.01403   0.0063  0.2257  1.0000  -2.3225   0.0000   0.0000   0.0000   0.2361
   5.900   0.6722   0.02386   0.01456   0.0065  0.2166  1.0000  -2.3671   0.0000   0.0000   0.0000   0.2358
   6.000   0.6819   0.02423   0.01477   0.0068  0.2093  1.0000  -2.4616   0.0000   0.0000   0.0000   0.2355
   6.100   0.6916   0.02477   0.01548   0.0070  0.2008  1.0000  -2.5482   0.0000   0.0000   0.0000   0.2352
   6.200   0.7014   0.02513   0.01585   0.0073  0.1931  1.0000  -2.6467   0.0000   0.0000   0.0000   0.2349
   6.400   0.7206   0.02627   0.01717   0.0078  0.1785  1.0000  -2.8400   0.0000   0.0000   0.0000   0.2344
   6.500   0.7302   0.02658   0.01738   0.0080  0.1715  1.0000  -2.9500   0.0000   0.0000   0.0000   0.2341
   6.600   0.7395   0.02737   0.01825   0.0082  0.1653  1.0000  -3.0380   0.0000   0.0000   0.0000   0.2338
   6.700   0.7491   0.02801   0.01906   0.0085  0.1589  1.0000  -3.1236   0.0000   0.0000   0.0000   0.2336
   6.800   0.7587   0.02844   0.01939   0.0087  0.1532  1.0000  -3.2316   0.0000   0.0000   0.0000   0.2333
   6.900   0.7676   0.02931   0.02036   0.0089  0.1474  1.0000  -3.3160   0.0000   0.0000   0.0000   0.2331
   7.000   0.7768   0.02984   0.02106   0.0092  0.1409  1.0000  -3.4049   0.0000   0.0000   0.0000   0.2328
   7.100   0.7862   0.03025   0.02138   0.0094  0.1358  1.0000  -3.5160   0.0000   0.0000   0.0000   0.2326
   7.200   0.7950   0.03144   0.02261   0.0096  0.1321  1.0000  -3.5948   0.0000   0.0000   0.0000   0.2324
   7.300   0.8033   0.03259   0.02411   0.0098  0.1283  1.0000  -3.6496   0.0000   0.0000   0.0000   0.2321
   7.400   0.8119   0.03361   0.02530   0.0101  0.1246  1.0000  -3.7207   0.0000   0.0000   0.0000   0.2319
   7.500   0.8211   0.03425   0.02593   0.0103  0.1209  1.0000  -3.8189   0.0000   0.0000   0.0000   0.2317
   7.600   0.8299   0.03527   0.02677   0.0104  0.1174  1.0000  -3.9279   0.0000   0.0000   0.0000   0.2316
   7.700   0.8363   0.03652   0.02846   0.0106  0.1142  1.0000  -3.9629   0.0000   0.0000   0.0000   0.2314
   7.800   0.8433   0.03766   0.02987   0.0108  0.1105  1.0000  -4.0182   0.0000   0.0000   0.0000   0.2312
   7.900   0.8515   0.03845   0.03072   0.0110  0.1072  1.0000  -4.1045   0.0000   0.0000   0.0000   0.2310
   8.000   0.8601   0.03934   0.03163   0.0112  0.1050  1.0000  -4.1937   0.0000   0.0000   0.0000   0.2308
   8.100   0.8680   0.04052   0.03279   0.0113  0.1031  1.0000  -4.2803   0.0000   0.0000   0.0000   0.2307
   8.200   0.8735   0.04254   0.03490   0.0114  0.1018  1.0000  -4.3233   0.0000   0.0000   0.0000   0.2307
   8.300   0.8773   0.04451   0.03723   0.0114  0.1010  1.0000  -4.3257   0.0000   0.0000   0.0000   0.2307
   8.400   0.8801   0.04670   0.03974   0.0113  0.1004  1.0000  -4.3198   0.0000   0.0000   0.0000   0.2308
   8.500   0.8819   0.04906   0.04238   0.0110  0.1000  1.0000  -4.3062   0.0000   0.0000   0.0000   0.2311
   8.600   0.8827   0.05155   0.04512   0.0106  0.0997  1.0000  -4.2854   0.0000   0.0000   0.0000   0.2316
   8.700   0.8826   0.05414   0.04799   0.0101  0.0997  1.0000  -4.2568   0.0000   0.0000   0.0000   0.2321
   8.800   0.8816   0.05681   0.05085   0.0094  0.0998  1.0000  -4.2248   0.0000   0.0000   0.0000   0.2329
   8.900   0.8798   0.05955   0.05374   0.0086  0.1000  1.0000  -4.1882   0.0000   0.0000   0.0000   0.2337
   9.000   0.8770   0.06232   0.05660   0.0077  0.1002  1.0000  -4.1490   0.0000   0.0000   0.0000   0.2347
   9.100   0.8738   0.06510   0.05949   0.0066  0.1004  1.0000  -4.1061   0.0000   0.0000   0.0000   0.2359
   9.200   0.8701   0.06788   0.06235   0.0055  0.1006  1.0000  -4.0627   0.0000   0.0000   0.0000   0.2371
   9.300   0.8663   0.07064   0.06519   0.0043  0.1009  1.0000  -4.0201   0.0000   0.0000   0.0000   0.2384
   9.400   0.8625   0.07338   0.06798   0.0031  0.1012  1.0000  -3.9792   0.0000   0.0000   0.0000   0.2398
   9.500   0.8587   0.07611   0.07074   0.0018  0.1014  1.0000  -3.9404   0.0000   0.0000   0.0000   0.2412
   9.600   0.8553   0.07882   0.07349   0.0006  0.1016  1.0000  -3.9041   0.0000   0.0000   0.0000   0.2426
   9.700   0.8520   0.08150   0.07619  -0.0006  0.1018  1.0000  -3.8705   0.0000   0.0000   0.0000   0.2439
   9.900   0.7201   0.11698   0.11128  -0.0408  0.1948  1.0000  -2.0485   0.0000   0.0000   0.0000   0.3010
  10.000   0.7242   0.11862   0.11294  -0.0408  0.1930  1.0000  -2.0794   0.0000   0.0000   0.0000   0.3005
  10.100   0.7312   0.12038   0.11472  -0.0402  0.1914  1.0000  -2.1308   0.0000   0.0000   0.0000   0.2992
  10.200   0.7434   0.12256   0.11696  -0.0388  0.1898  1.0000  -2.2167   0.0000   0.0000   0.0000   0.2964
  10.300   0.7667   0.12655   0.12106  -0.0355  0.1882  1.0000  -2.3727   0.0000   0.0000   0.0000   0.2904
  10.400   0.7666   0.12923   0.12371  -0.0362  0.1877  1.0000  -2.3666   0.0000   0.0000   0.0000   0.2913
  10.500   0.7529   0.13001   0.12442  -0.0392  0.1872  1.0000  -2.2720   0.0000   0.0000   0.0000   0.2960
  10.600   0.7350   0.13023   0.12455  -0.0427  0.1858  1.0000  -2.1508   0.0000   0.0000   0.0000   0.3020
  10.700   0.7238   0.13090   0.12517  -0.0451  0.1828  1.0000  -2.0748   0.0000   0.0000   0.0000   0.3061
  10.800   0.7218   0.13225   0.12651  -0.0461  0.1800  1.0000  -2.0614   0.0000   0.0000   0.0000   0.3076
  10.900   0.7228   0.13374   0.12800  -0.0466  0.1775  1.0000  -2.0690   0.0000   0.0000   0.0000   0.3081
  11.000   0.7259   0.13529   0.12957  -0.0467  0.1753  1.0000  -2.0910   0.0000   0.0000   0.0000   0.3079
  11.100   0.7312   0.13698   0.13127  -0.0465  0.1733  1.0000  -2.1289   0.0000   0.0000   0.0000   0.3071
  11.200   0.7432   0.13915   0.13350  -0.0452  0.1711  1.0000  -2.2133   0.0000   0.0000   0.0000   0.3042
  11.300   0.7621   0.14370   0.13811  -0.0424  0.1683  1.0000  -2.3414   0.0000   0.0000   0.0000   0.2990
  11.400   0.7532   0.14455   0.13891  -0.0447  0.1679  1.0000  -2.2744   0.0000   0.0000   0.0000   0.3026
  11.500   0.7437   0.14522   0.13953  -0.0470  0.1671  1.0000  -2.2043   0.0000   0.0000   0.0000   0.3064
  11.600   0.7350   0.14583   0.14011  -0.0490  0.1654  1.0000  -2.1409   0.0000   0.0000   0.0000   0.3099
  11.700   0.7308   0.14680   0.14106  -0.0504  0.1624  1.0000  -2.1093   0.0000   0.0000   0.0000   0.3120
  11.800   0.7318   0.14805   0.14231  -0.0509  0.1587  1.0000  -2.1170   0.0000   0.0000   0.0000   0.3124
  11.900   0.7446   0.14978   0.14409  -0.0492  0.1536  1.0000  -2.2155   0.0000   0.0000   0.0000   0.3090
  12.000   0.7819   0.15690   0.15135  -0.0434  0.1506  1.0000  -2.4559   0.0000   0.0000   0.0000   0.2983
  12.100   0.7740   0.15771   0.15212  -0.0456  0.1504  1.0000  -2.3925   0.0000   0.0000   0.0000   0.3016
  12.200   0.7650   0.15825   0.15261  -0.0479  0.1500  1.0000  -2.3238   0.0000   0.0000   0.0000   0.3053
  12.300   0.7551   0.15852   0.15283  -0.0503  0.1494  1.0000  -2.2489   0.0000   0.0000   0.0000   0.3092
  12.400   0.7458   0.15873   0.15300  -0.0526  0.1479  1.0000  -2.1788   0.0000   0.0000   0.0000   0.3131
  12.500   0.7416   0.15956   0.15382  -0.0541  0.1456  1.0000  -2.1412   0.0000   0.0000   0.0000   0.3154
  12.600   0.7414   0.16088   0.15513  -0.0550  0.1432  1.0000  -2.1309   0.0000   0.0000   0.0000   0.3165
  12.700   0.7432   0.16235   0.15661  -0.0554  0.1409  1.0000  -2.1347   0.0000   0.0000   0.0000   0.3168
  12.800   0.7467   0.16396   0.15823  -0.0556  0.1388  1.0000  -2.1506   0.0000   0.0000   0.0000   0.3166
  12.900   0.7529   0.16587   0.16016  -0.0552  0.1368  1.0000  -2.1842   0.0000   0.0000   0.0000   0.3154
  13.000   0.7730   0.17025   0.16462  -0.0525  0.1344  1.0000  -2.2990   0.0000   0.0000   0.0000   0.3099
  13.100   0.7824   0.17483   0.16922  -0.0515  0.1332  1.0000  -2.3325   0.0000   0.0000   0.0000   0.3078
  13.200   0.7757   0.17526   0.16961  -0.0536  0.1329  1.0000  -2.2746   0.0000   0.0000   0.0000   0.3110
  13.300   0.7685   0.17544   0.16976  -0.0557  0.1324  1.0000  -2.2158   0.0000   0.0000   0.0000   0.3143
  13.400   0.7614   0.17544   0.16973  -0.0577  0.1315  1.0000  -2.1584   0.0000   0.0000   0.0000   0.3175
  13.500   0.7568   0.17584   0.17011  -0.0594  0.1297  1.0000  -2.1130   0.0000   0.0000   0.0000   0.3201
  13.600   0.7561   0.17691   0.17117  -0.0604  0.1271  1.0000  -2.0913   0.0000   0.0000   0.0000   0.3215
  13.700   0.7582   0.17827   0.17253  -0.0609  0.1240  1.0000  -2.0907   0.0000   0.0000   0.0000   0.3217
  14.000   0.7804   0.18685   0.18116  -0.0590  0.1164  1.0000  -2.1712   0.0000   0.0000   0.0000   0.3169
  14.100   0.7742   0.18675   0.18103  -0.0610  0.1158  1.0000  -2.1164   0.0000   0.0000   0.0000   0.3199
  14.200   0.7700   0.18699   0.18125  -0.0629  0.1144  1.0000  -2.0664   0.0000   0.0000   0.0000   0.3227
  14.300   0.7691   0.18798   0.18222  -0.0642  0.1124  1.0000  -2.0347   0.0000   0.0000   0.0000   0.3244
  14.400   0.7704   0.18935   0.18360  -0.0650  0.1102  1.0000  -2.0175   0.0000   0.0000   0.0000   0.3252
  14.500   0.7729   0.19088   0.18513  -0.0654  0.1081  1.0000  -2.0095   0.0000   0.0000   0.0000   0.3254
  14.600   0.7767   0.19257   0.18683  -0.0656  0.1062  1.0000  -2.0108   0.0000   0.0000   0.0000   0.3251
  14.700   0.7831   0.19481   0.18908  -0.0650  0.1043  1.0000  -2.0295   0.0000   0.0000   0.0000   0.3236
  14.800   0.8098   0.20450   0.19889  -0.0608  0.1019  1.0000  -2.1327   0.0000   0.0000   0.0000   0.3156
  14.900   0.8053   0.20468   0.19905  -0.0627  0.1017  1.0000  -2.0822   0.0000   0.0000   0.0000   0.3183
  15.000   0.8001   0.20443   0.19877  -0.0645  0.1015  1.0000  -2.0327   0.0000   0.0000   0.0000   0.3210


