xflr5 v6.61

 Calculated polar for: S8025 (8%)

 1 1 Reynolds number fixed          Mach number fixed         

 xtrf =   1.000 (top)        1.000 (bottom)
 Mach =   0.000     Re =     0.450 e 6     Ncrit =   9.000

  alpha     CL        CD       CDp       Cm    Top Xtr Bot Xtr   Cpmin    Chinge    XCp    
 ------- -------- --------- --------- -------- ------- ------- -------- --------- ---------
 -10.000  -0.6891   0.11072   0.10839   0.0339  1.0000  0.0186  -2.2745   0.0000   0.0000   0.0000   0.2937
  -9.900  -0.6897   0.10863   0.10631   0.0328  1.0000  0.0188  -2.3059   0.0000   0.0000   0.0000   0.2921
  -9.800  -0.6903   0.10645   0.10413   0.0317  1.0000  0.0191  -2.3420   0.0000   0.0000   0.0000   0.2905
  -9.700  -0.6911   0.10417   0.10186   0.0304  1.0000  0.0193  -2.3849   0.0000   0.0000   0.0000   0.2886
  -9.600  -0.6921   0.10177   0.09947   0.0290  1.0000  0.0196  -2.4352   0.0000   0.0000   0.0000   0.2865
  -9.500  -0.6934   0.09918   0.09689   0.0274  1.0000  0.0199  -2.4997   0.0000   0.0000   0.0000   0.2841
  -9.400  -0.6947   0.09610   0.09382   0.0251  1.0000  0.0204  -2.5995   0.0000   0.0000   0.0000   0.2808
  -9.300  -0.6942   0.09333   0.09107   0.0230  1.0000  0.0207  -2.6757   0.0000   0.0000   0.0000   0.2777
  -9.200  -0.6952   0.09056   0.08830   0.0210  1.0000  0.0208  -2.7408   0.0000   0.0000   0.0000   0.2748
  -9.100  -0.6968   0.08760   0.08535   0.0189  1.0000  0.0209  -2.8111   0.0000   0.0000   0.0000   0.2718
  -9.000  -0.6990   0.08431   0.08207   0.0165  1.0000  0.0209  -2.8943   0.0000   0.0000   0.0000   0.2683
  -8.900  -0.7023   0.08014   0.07791   0.0132  1.0000  0.0209  -3.0122   0.0000   0.0000   0.0000   0.2634
  -8.800  -0.7072   0.07469   0.07244   0.0079  1.0000  0.0209  -3.1704   0.0000   0.0000   0.0000   0.2558
  -8.700  -0.7127   0.07065   0.06836   0.0031  1.0000  0.0209  -3.2694   0.0000   0.0000   0.0000   0.2489
  -7.000  -0.7170   0.02419   0.01895  -0.0088  1.0000  0.0095  -4.8557   0.0000   0.0000   0.0000   0.2327
  -6.900  -0.7064   0.02404   0.01873  -0.0086  1.0000  0.0093  -4.7485   0.0000   0.0000   0.0000   0.2329
  -6.800  -0.6960   0.02390   0.01856  -0.0084  1.0000  0.0092  -4.6281   0.0000   0.0000   0.0000   0.2331
  -6.700  -0.6887   0.02211   0.01664  -0.0080  1.0000  0.0087  -4.6544   0.0000   0.0000   0.0000   0.2336
  -6.600  -0.6806   0.02074   0.01512  -0.0076  1.0000  0.0085  -4.6509   0.0000   0.0000   0.0000   0.2341
  -6.500  -0.6719   0.01968   0.01393  -0.0073  1.0000  0.0083  -4.6212   0.0000   0.0000   0.0000   0.2345
  -6.400  -0.6627   0.01878   0.01291  -0.0069  1.0000  0.0082  -4.5794   0.0000   0.0000   0.0000   0.2350
  -6.300  -0.6534   0.01797   0.01201  -0.0066  1.0000  0.0081  -4.5296   0.0000   0.0000   0.0000   0.2354
  -6.200  -0.6440   0.01725   0.01120  -0.0062  1.0000  0.0080  -4.4736   0.0000   0.0000   0.0000   0.2359
  -6.100  -0.6345   0.01659   0.01047  -0.0059  1.0000  0.0079  -4.4128   0.0000   0.0000   0.0000   0.2363
  -6.000  -0.6249   0.01598   0.00979  -0.0056  1.0000  0.0079  -4.3480   0.0000   0.0000   0.0000   0.2367
  -5.900  -0.6152   0.01542   0.00917  -0.0053  1.0000  0.0078  -4.2795   0.0000   0.0000   0.0000   0.2372
  -5.800  -0.6055   0.01490   0.00860  -0.0050  1.0000  0.0078  -4.2078   0.0000   0.0000   0.0000   0.2376
  -5.700  -0.5957   0.01442   0.00807  -0.0047  1.0000  0.0078  -4.1331   0.0000   0.0000   0.0000   0.2380
  -5.600  -0.5859   0.01397   0.00757  -0.0044  1.0000  0.0078  -4.0557   0.0000   0.0000   0.0000   0.2385
  -5.500  -0.5759   0.01356   0.00711  -0.0041  1.0000  0.0079  -3.9761   0.0000   0.0000   0.0000   0.2389
  -5.400  -0.5659   0.01317   0.00668  -0.0038  1.0000  0.0079  -3.8945   0.0000   0.0000   0.0000   0.2393
  -5.300  -0.5558   0.01282   0.00628  -0.0036  1.0000  0.0080  -3.8112   0.0000   0.0000   0.0000   0.2397
  -5.200  -0.5456   0.01248   0.00590  -0.0034  1.0000  0.0082  -3.7262   0.0000   0.0000   0.0000   0.2400
  -5.100  -0.5353   0.01218   0.00556  -0.0031  1.0000  0.0083  -3.6393   0.0000   0.0000   0.0000   0.2404
  -5.000  -0.5249   0.01192   0.00522  -0.0029  1.0000  0.0085  -3.5400   0.0000   0.0000   0.0000   0.2407
  -4.900  -0.5145   0.01167   0.00493  -0.0027  1.0000  0.0087  -3.4521   0.0000   0.0000   0.0000   0.2411
  -4.800  -0.5040   0.01145   0.00467  -0.0025  1.0000  0.0090  -3.3617   0.0000   0.0000   0.0000   0.2414
  -4.700  -0.4938   0.01104   0.00418  -0.0022  1.0000  0.0102  -3.3273   0.0000   0.0000   0.0000   0.2420
  -4.600  -0.4834   0.01074   0.00387  -0.0020  1.0000  0.0126  -3.2647   0.0000   0.0000   0.0000   0.2425
  -4.500  -0.4742   0.01007   0.00341  -0.0017  1.0000  0.0436  -3.2603   0.0000   0.0000   0.0000   0.2431
  -4.400  -0.4641   0.00980   0.00325  -0.0015  1.0000  0.0621  -3.1580   0.0000   0.0000   0.0000   0.2434
  -4.300  -0.4536   0.00963   0.00314  -0.0014  1.0000  0.0737  -3.0377   0.0000   0.0000   0.0000   0.2437
  -4.100  -0.4327   0.00930   0.00293  -0.0012  1.0000  0.0971  -2.7887   0.0000   0.0000   0.0000   0.2442
  -4.000  -0.4223   0.00913   0.00283  -0.0010  1.0000  0.1112  -2.6646   0.0000   0.0000   0.0000   0.2444
  -3.900  -0.4119   0.00896   0.00274  -0.0009  1.0000  0.1254  -2.5413   0.0000   0.0000   0.0000   0.2447
  -3.800  -0.4015   0.00879   0.00265  -0.0008  1.0000  0.1423  -2.4195   0.0000   0.0000   0.0000   0.2450
  -3.700  -0.3913   0.00860   0.00257  -0.0007  1.0000  0.1636  -2.2995   0.0000   0.0000   0.0000   0.2453
  -3.600  -0.3810   0.00842   0.00249  -0.0006  1.0000  0.1863  -2.1812   0.0000   0.0000   0.0000   0.2456
  -3.500  -0.3708   0.00822   0.00241  -0.0005  1.0000  0.2108  -2.0655   0.0000   0.0000   0.0000   0.2459
  -3.400  -0.3606   0.00803   0.00234  -0.0003  1.0000  0.2351  -1.9521   0.0000   0.0000   0.0000   0.2463
  -3.300  -0.3502   0.00787   0.00224  -0.0002  1.0000  0.2563  -1.8442   0.0000   0.0000   0.0000   0.2467
  -3.100  -0.3293   0.00761   0.00211   0.0001  1.0000  0.2906  -1.6226   0.0000   0.0000   0.0000   0.2476
  -3.000  -0.3189   0.00749   0.00205   0.0002  1.0000  0.3073  -1.5391   0.0000   0.0000   0.0000   0.2481
  -2.900  -0.3084   0.00737   0.00199   0.0004  1.0000  0.3243  -1.4569   0.0000   0.0000   0.0000   0.2486
  -2.800  -0.2979   0.00726   0.00193   0.0005  1.0000  0.3428  -1.3762   0.0000   0.0000   0.0000   0.2492
  -2.700  -0.2876   0.00713   0.00188   0.0007  1.0000  0.3627  -1.2972   0.0000   0.0000   0.0000   0.2498
  -2.600  -0.2773   0.00700   0.00184   0.0008  1.0000  0.3833  -1.2197   0.0000   0.0000   0.0000   0.2505
  -2.500  -0.2669   0.00688   0.00179   0.0010  1.0000  0.4041  -1.1435   0.0000   0.0000   0.0000   0.2513
  -2.400  -0.2566   0.00677   0.00175   0.0012  1.0000  0.4248  -1.0687   0.0000   0.0000   0.0000   0.2522
  -2.300  -0.2462   0.00667   0.00172   0.0013  1.0000  0.4455  -0.9952   0.0000   0.0000   0.0000   0.2531
  -2.200  -0.2360   0.00655   0.00169   0.0015  1.0000  0.4658  -0.9235   0.0000   0.0000   0.0000   0.2542
  -2.100  -0.2257   0.00644   0.00166   0.0017  1.0000  0.4873  -0.8533   0.0000   0.0000   0.0000   0.2554
  -2.000  -0.2155   0.00633   0.00164   0.0020  1.0000  0.5111  -0.8115   0.0000   0.0000   0.0000   0.2568
  -1.900  -0.2054   0.00622   0.00162   0.0022  1.0000  0.5351  -0.7841   0.0000   0.0000   0.0000   0.2584
  -1.800  -0.1953   0.00612   0.00161   0.0024  1.0000  0.5586  -0.7579   0.0000   0.0000   0.0000   0.2601
  -1.700  -0.1851   0.00602   0.00156   0.0027  1.0000  0.5817  -0.7317   0.0000   0.0000   0.0000   0.2621
  -1.600  -0.1749   0.00594   0.00155   0.0029  1.0000  0.6030  -0.7058   0.0000   0.0000   0.0000   0.2644
  -1.500  -0.1608   0.00585   0.00155   0.0023  0.9953  0.6241  -0.6750   0.0000   0.0000   0.0000   0.2619
  -1.400  -0.1440   0.00577   0.00155   0.0011  0.9849  0.6443  -0.6412   0.0000   0.0000   0.0000   0.2554
  -1.300  -0.1268   0.00570   0.00154  -0.0001  0.9715  0.6632  -0.6072   0.0000   0.0000   0.0000   0.2467
  -1.200  -0.1094   0.00564   0.00153  -0.0014  0.9545  0.6834  -0.5732   0.0000   0.0000   0.0000   0.2353
  -1.100  -0.0927   0.00558   0.00152  -0.0024  0.9334  0.7039  -0.5421   0.0000   0.0000   0.0000   0.2221
  -1.000  -0.0791   0.00553   0.00151  -0.0026  0.9084  0.7235  -0.5164   0.0000   0.0000   0.0000   0.2142
  -0.900  -0.0685   0.00551   0.00150  -0.0022  0.8818  0.7416  -0.4942   0.0000   0.0000   0.0000   0.2152
  -0.800  -0.0592   0.00552   0.00148  -0.0015  0.8564  0.7589  -0.4734   0.0000   0.0000   0.0000   0.2216
  -0.700  -0.0502   0.00553   0.00147  -0.0008  0.8316  0.7768  -0.4530   0.0000   0.0000   0.0000   0.2310
  -0.600  -0.0413   0.00554   0.00146  -0.0001  0.8085  0.7948  -0.4330   0.0000   0.0000   0.0000   0.2454
  -0.500  -0.0323   0.00555   0.00146   0.0006  0.7874  0.8129  -0.4139   0.0000   0.0000   0.0000   0.2667
  -0.400  -0.0233   0.00557   0.00146   0.0013  0.7677  0.8314  -0.3980   0.0000   0.0000   0.0000   0.3039
  -0.300  -0.0142   0.00558   0.00145   0.0020  0.7491  0.8502  -0.3824   0.0000   0.0000   0.0000   0.3882
  -0.200  -0.0049   0.00560   0.00145   0.0026  0.7313  0.8690  -0.3949   0.0000   0.0000   0.0000   0.7860
  -0.100   0.0048   0.00561   0.00145   0.0032  0.7149  0.8879  -0.4086   0.0000   0.0000   0.0000  -0.4142
   0.000   0.0151   0.00564   0.00145   0.0036  0.6999  0.9065  -0.4227   0.0000   0.0000   0.0000   0.0086
   0.100   0.0267   0.00567   0.00145   0.0037  0.6845  0.9239  -0.4377   0.0000   0.0000   0.0000   0.1073
   0.200   0.0399   0.00571   0.00145   0.0035  0.6696  0.9392  -0.4547   0.0000   0.0000   0.0000   0.1604
   0.300   0.0544   0.00578   0.00144   0.0029  0.6536  0.9520  -0.4736   0.0000   0.0000   0.0000   0.1944
   0.400   0.0698   0.00583   0.00144   0.0021  0.6369  0.9628  -0.4934   0.0000   0.0000   0.0000   0.2180
   0.500   0.0859   0.00589   0.00143   0.0011  0.6202  0.9730  -0.5138   0.0000   0.0000   0.0000   0.2350
   0.700   0.1191   0.00603   0.00141  -0.0011  0.5844  0.9899  -0.5558   0.0000   0.0000   0.0000   0.2573
   0.800   0.1360   0.00610   0.00140  -0.0023  0.5670  0.9968  -0.5772   0.0000   0.0000   0.0000   0.2652
   1.000   0.1606   0.00622   0.00139  -0.0029  0.5361  1.0000  -0.6130   0.0000   0.0000   0.0000   0.2657
   1.100   0.1709   0.00630   0.00139  -0.0027  0.5224  1.0000  -0.6309   0.0000   0.0000   0.0000   0.2635
   1.200   0.1813   0.00635   0.00139  -0.0025  0.5096  1.0000  -0.6489   0.0000   0.0000   0.0000   0.2617
   1.400   0.2020   0.00647   0.00142  -0.0022  0.4855  1.0000  -0.6870   0.0000   0.0000   0.0000   0.2585
   1.500   0.2123   0.00655   0.00143  -0.0020  0.4730  1.0000  -0.7095   0.0000   0.0000   0.0000   0.2571
   1.600   0.2228   0.00660   0.00144  -0.0018  0.4614  1.0000  -0.7324   0.0000   0.0000   0.0000   0.2559
   1.700   0.2332   0.00668   0.00145  -0.0017  0.4489  1.0000  -0.7553   0.0000   0.0000   0.0000   0.2548
   1.800   0.2437   0.00674   0.00147  -0.0015  0.4377  1.0000  -0.7784   0.0000   0.0000   0.0000   0.2538
   1.900   0.2541   0.00681   0.00149  -0.0013  0.4260  1.0000  -0.8029   0.0000   0.0000   0.0000   0.2529
   2.000   0.2646   0.00689   0.00151  -0.0012  0.4157  1.0000  -0.8291   0.0000   0.0000   0.0000   0.2520
   2.100   0.2751   0.00694   0.00154  -0.0010  0.4055  1.0000  -0.8557   0.0000   0.0000   0.0000   0.2513
   2.200   0.2856   0.00703   0.00156  -0.0009  0.3950  1.0000  -0.8823   0.0000   0.0000   0.0000   0.2506
   2.300   0.2962   0.00709   0.00159  -0.0007  0.3855  1.0000  -0.9092   0.0000   0.0000   0.0000   0.2499
   2.400   0.3067   0.00716   0.00162  -0.0006  0.3749  1.0000  -0.9363   0.0000   0.0000   0.0000   0.2493
   2.500   0.3172   0.00724   0.00166  -0.0005  0.3650  1.0000  -0.9634   0.0000   0.0000   0.0000   0.2488
   2.600   0.3279   0.00731   0.00169  -0.0003  0.3550  1.0000  -0.9910   0.0000   0.0000   0.0000   0.2483
   2.700   0.3384   0.00741   0.00173  -0.0002  0.3446  1.0000  -1.0184   0.0000   0.0000   0.0000   0.2478
   2.800   0.3491   0.00747   0.00177  -0.0001  0.3356  1.0000  -1.0464   0.0000   0.0000   0.0000   0.2474
   2.900   0.3596   0.00755   0.00181   0.0001  0.3253  1.0000  -1.0743   0.0000   0.0000   0.0000   0.2470
   3.000   0.3702   0.00764   0.00189   0.0002  0.3157  1.0000  -1.1025   0.0000   0.0000   0.0000   0.2466
   3.100   0.3809   0.00771   0.00194   0.0003  0.3062  1.0000  -1.1318   0.0000   0.0000   0.0000   0.2463
   3.200   0.3914   0.00782   0.00199   0.0004  0.2966  1.0000  -1.1639   0.0000   0.0000   0.0000   0.2459
   3.300   0.4022   0.00788   0.00204   0.0005  0.2887  1.0000  -1.1966   0.0000   0.0000   0.0000   0.2456
   3.400   0.4128   0.00796   0.00209   0.0007  0.2799  1.0000  -1.2364   0.0000   0.0000   0.0000   0.2453
   3.500   0.4234   0.00807   0.00215   0.0008  0.2712  1.0000  -1.2801   0.0000   0.0000   0.0000   0.2450
   3.600   0.4342   0.00813   0.00220   0.0009  0.2633  1.0000  -1.3248   0.0000   0.0000   0.0000   0.2448
   3.700   0.4448   0.00824   0.00226   0.0010  0.2546  1.0000  -1.3694   0.0000   0.0000   0.0000   0.2445
   3.800   0.4554   0.00833   0.00233   0.0011  0.2470  1.0000  -1.4145   0.0000   0.0000   0.0000   0.2443
   3.900   0.4662   0.00840   0.00239   0.0012  0.2395  1.0000  -1.4603   0.0000   0.0000   0.0000   0.2441
   4.000   0.4768   0.00851   0.00246   0.0013  0.2317  1.0000  -1.5079   0.0000   0.0000   0.0000   0.2438
   4.100   0.4875   0.00860   0.00254   0.0014  0.2250  1.0000  -1.5625   0.0000   0.0000   0.0000   0.2436
   4.200   0.4982   0.00868   0.00261   0.0015  0.2178  1.0000  -1.6176   0.0000   0.0000   0.0000   0.2434
   4.300   0.5088   0.00880   0.00268   0.0016  0.2101  1.0000  -1.6729   0.0000   0.0000   0.0000   0.2432
   4.400   0.5196   0.00889   0.00276   0.0017  0.2036  1.0000  -1.7290   0.0000   0.0000   0.0000   0.2430
   4.500   0.5303   0.00899   0.00287   0.0018  0.1963  1.0000  -1.7866   0.0000   0.0000   0.0000   0.2428
   4.600   0.5407   0.00914   0.00297   0.0019  0.1883  1.0000  -1.8432   0.0000   0.0000   0.0000   0.2426
   4.700   0.5516   0.00921   0.00305   0.0020  0.1822  1.0000  -1.9012   0.0000   0.0000   0.0000   0.2425
   4.800   0.5622   0.00932   0.00314   0.0021  0.1749  1.0000  -1.9593   0.0000   0.0000   0.0000   0.2423
   4.900   0.5727   0.00946   0.00324   0.0022  0.1676  1.0000  -2.0173   0.0000   0.0000   0.0000   0.2421
   5.000   0.5835   0.00955   0.00333   0.0023  0.1611  1.0000  -2.0767   0.0000   0.0000   0.0000   0.2420
   5.100   0.5940   0.00969   0.00342   0.0024  0.1537  1.0000  -2.1359   0.0000   0.0000   0.0000   0.2418
   5.200   0.6047   0.00980   0.00353   0.0025  0.1475  1.0000  -2.1958   0.0000   0.0000   0.0000   0.2416
   5.300   0.6153   0.00991   0.00363   0.0026  0.1411  1.0000  -2.2563   0.0000   0.0000   0.0000   0.2415
   5.400   0.6258   0.01008   0.00375   0.0027  0.1340  1.0000  -2.3163   0.0000   0.0000   0.0000   0.2413
   5.500   0.6365   0.01017   0.00386   0.0027  0.1289  1.0000  -2.3779   0.0000   0.0000   0.0000   0.2412
   5.600   0.6471   0.01031   0.00397   0.0028  0.1226  1.0000  -2.4394   0.0000   0.0000   0.0000   0.2410
   5.700   0.6575   0.01048   0.00410   0.0029  0.1163  1.0000  -2.5005   0.0000   0.0000   0.0000   0.2409
   5.800   0.6682   0.01058   0.00422   0.0030  0.1110  1.0000  -2.5846   0.0000   0.0000   0.0000   0.2407
   5.900   0.6786   0.01075   0.00435   0.0031  0.1049  1.0000  -2.6985   0.0000   0.0000   0.0000   0.2406
   6.000   0.6892   0.01090   0.00450   0.0032  0.0999  1.0000  -2.8143   0.0000   0.0000   0.0000   0.2404
   6.100   0.6998   0.01103   0.00466   0.0033  0.0950  1.0000  -2.9385   0.0000   0.0000   0.0000   0.2402
   6.200   0.7101   0.01123   0.00482   0.0034  0.0897  1.0000  -3.0581   0.0000   0.0000   0.0000   0.2401
   6.300   0.7206   0.01138   0.00498   0.0035  0.0855  1.0000  -3.1794   0.0000   0.0000   0.0000   0.2399
   6.400   0.7312   0.01152   0.00513   0.0036  0.0811  1.0000  -3.3029   0.0000   0.0000   0.0000   0.2398
   6.500   0.7414   0.01174   0.00531   0.0037  0.0763  1.0000  -3.4250   0.0000   0.0000   0.0000   0.2396
   6.600   0.7519   0.01191   0.00550   0.0038  0.0725  1.0000  -3.5493   0.0000   0.0000   0.0000   0.2394
   6.700   0.7624   0.01206   0.00566   0.0039  0.0686  1.0000  -3.6763   0.0000   0.0000   0.0000   0.2392
   6.800   0.7725   0.01232   0.00589   0.0041  0.0641  1.0000  -3.8004   0.0000   0.0000   0.0000   0.2391
   6.900   0.7828   0.01253   0.00612   0.0042  0.0606  1.0000  -3.9263   0.0000   0.0000   0.0000   0.2389
   7.000   0.7932   0.01270   0.00631   0.0043  0.0572  1.0000  -4.0561   0.0000   0.0000   0.0000   0.2387
   7.100   0.8032   0.01299   0.00656   0.0044  0.0534  1.0000  -4.1826   0.0000   0.0000   0.0000   0.2385
   7.200   0.8131   0.01329   0.00688   0.0046  0.0503  1.0000  -4.3068   0.0000   0.0000   0.0000   0.2383
   7.300   0.8236   0.01345   0.00707   0.0047  0.0478  1.0000  -4.4410   0.0000   0.0000   0.0000   0.2381
   7.400   0.8338   0.01366   0.00728   0.0048  0.0454  1.0000  -4.5756   0.0000   0.0000   0.0000   0.2380
   7.500   0.8435   0.01401   0.00762   0.0050  0.0427  1.0000  -4.7029   0.0000   0.0000   0.0000   0.2377
   7.600   0.8530   0.01441   0.00804   0.0052  0.0408  1.0000  -4.8252   0.0000   0.0000   0.0000   0.2375
   7.700   0.8633   0.01459   0.00830   0.0053  0.0397  1.0000  -4.9580   0.0000   0.0000   0.0000   0.2373
   7.800   0.8735   0.01481   0.00855   0.0054  0.0384  1.0000  -5.0925   0.0000   0.0000   0.0000   0.2371
   7.900   0.8836   0.01505   0.00882   0.0056  0.0371  1.0000  -5.2288   0.0000   0.0000   0.0000   0.2369
   8.000   0.8936   0.01530   0.00910   0.0057  0.0359  1.0000  -5.3666   0.0000   0.0000   0.0000   0.2367
   8.100   0.9033   0.01561   0.00942   0.0059  0.0347  1.0000  -5.5020   0.0000   0.0000   0.0000   0.2365
   8.200   0.9122   0.01611   0.00993   0.0061  0.0334  1.0000  -5.6259   0.0000   0.0000   0.0000   0.2362
   8.300   0.9206   0.01673   0.01060   0.0064  0.0322  1.0000  -5.7405   0.0000   0.0000   0.0000   0.2359
   8.400   0.9313   0.01680   0.01072   0.0064  0.0315  1.0000  -5.8954   0.0000   0.0000   0.0000   0.2357
   8.500   0.9418   0.01689   0.01085   0.0065  0.0304  1.0000  -6.0524   0.0000   0.0000   0.0000   0.2356
   8.600   0.9523   0.01699   0.01096   0.0065  0.0291  1.0000  -6.2127   0.0000   0.0000   0.0000   0.2355
   8.700   0.9626   0.01710   0.01109   0.0066  0.0279  1.0000  -6.3754   0.0000   0.0000   0.0000   0.2354
   8.800   0.9725   0.01732   0.01131   0.0067  0.0267  1.0000  -6.5315   0.0000   0.0000   0.0000   0.2353
   8.900   0.9812   0.01780   0.01180   0.0068  0.0256  1.0000  -6.6656   0.0000   0.0000   0.0000   0.2351
   9.000   0.9887   0.01855   0.01261   0.0071  0.0245  1.0000  -6.7742   0.0000   0.0000   0.0000   0.2347
   9.100   0.9991   0.01867   0.01278   0.0072  0.0240  1.0000  -6.9330   0.0000   0.0000   0.0000   0.2346
   9.200   1.0093   0.01883   0.01300   0.0073  0.0233  1.0000  -7.0883   0.0000   0.0000   0.0000   0.2344
   9.300   1.0192   0.01902   0.01324   0.0074  0.0224  1.0000  -7.2420   0.0000   0.0000   0.0000   0.2342
   9.400   1.0292   0.01922   0.01349   0.0075  0.0214  1.0000  -7.4001   0.0000   0.0000   0.0000   0.2341
   9.500   1.0391   0.01939   0.01369   0.0076  0.0203  1.0000  -7.5603   0.0000   0.0000   0.0000   0.2340
   9.600   1.0481   0.01974   0.01404   0.0077  0.0190  1.0000  -7.7058   0.0000   0.0000   0.0000   0.2338
   9.700   1.0552   0.02051   0.01487   0.0080  0.0174  1.0000  -7.7945   0.0000   0.0000   0.0000   0.2335
   9.800   1.0666   0.02041   0.01482   0.0080  0.0157  1.0000  -7.9462   0.0000   0.0000   0.0000   0.2334
   9.900   1.0770   0.02049   0.01488   0.0080  0.0135  1.0000  -8.0861   0.0000   0.0000   0.0000   0.2334
  10.000   1.0836   0.02137   0.01582   0.0082  0.0113  1.0000  -8.1053   0.0000   0.0000   0.0000   0.2330
  10.100   1.0932   0.02162   0.01612   0.0084  0.0103  1.0000  -8.2228   0.0000   0.0000   0.0000   0.2328
  10.200   1.1025   0.02189   0.01642   0.0085  0.0094  1.0000  -8.3608   0.0000   0.0000   0.0000   0.2327
  10.300   1.1116   0.02220   0.01675   0.0086  0.0088  1.0000  -8.5092   0.0000   0.0000   0.0000   0.2325
  10.400   1.1190   0.02282   0.01740   0.0087  0.0082  1.0000  -8.6237   0.0000   0.0000   0.0000   0.2323
  10.500   1.1215   0.02432   0.01904   0.0092  0.0075  1.0000  -8.6193   0.0000   0.0000   0.0000   0.2318
  10.600   1.1302   0.02467   0.01944   0.0093  0.0073  1.0000  -8.7665   0.0000   0.0000   0.0000   0.2316
  10.700   1.1386   0.02505   0.01988   0.0094  0.0071  1.0000  -8.9099   0.0000   0.0000   0.0000   0.2314
  10.800   1.1464   0.02554   0.02044   0.0096  0.0069  1.0000  -9.0410   0.0000   0.0000   0.0000   0.2312
  10.900   1.1536   0.02612   0.02110   0.0098  0.0068  1.0000  -9.1598   0.0000   0.0000   0.0000   0.2309
  11.000   1.1600   0.02680   0.02186   0.0100  0.0066  1.0000  -9.2647   0.0000   0.0000   0.0000   0.2306
  11.100   1.1660   0.02753   0.02268   0.0103  0.0065  1.0000  -9.3850   0.0000   0.0000   0.0000   0.2303
  11.200   1.1716   0.02830   0.02355   0.0105  0.0064  1.0000  -9.5187   0.0000   0.0000   0.0000   0.2300
  11.300   1.1768   0.02910   0.02444   0.0107  0.0062  1.0000  -9.6487   0.0000   0.0000   0.0000   0.2298
  11.400   1.1816   0.02992   0.02534   0.0109  0.0061  1.0000  -9.7745   0.0000   0.0000   0.0000   0.2295
  11.500   1.1860   0.03077   0.02628   0.0111  0.0060  1.0000  -9.8959   0.0000   0.0000   0.0000   0.2292
  11.600   1.1899   0.03165   0.02725   0.0113  0.0060  1.0000  -10.0124   0.0000   0.0000   0.0000   0.2289
  11.700   1.1933   0.03257   0.02826   0.0115  0.0059  1.0000  -10.1231   0.0000   0.0000   0.0000   0.2287
  11.800   1.1960   0.03353   0.02931   0.0116  0.0058  1.0000  -10.2269   0.0000   0.0000   0.0000   0.2284
  11.900   1.1980   0.03454   0.03040   0.0117  0.0057  1.0000  -10.3226   0.0000   0.0000   0.0000   0.2282
  12.000   1.1992   0.03560   0.03155   0.0118  0.0057  1.0000  -10.4086   0.0000   0.0000   0.0000   0.2281
  12.100   1.1987   0.03669   0.03272   0.0119  0.0056  1.0000  -10.4762   0.0000   0.0000   0.0000   0.2278
  12.200   1.1967   0.03788   0.03400   0.0119  0.0056  1.0000  -10.5244   0.0000   0.0000   0.0000   0.2276
  12.300   1.1936   0.03930   0.03550   0.0114  0.0055  1.0000  -10.5533   0.0000   0.0000   0.0000   0.2278
  12.400   1.1897   0.04105   0.03734   0.0102  0.0055  1.0000  -10.5638   0.0000   0.0000   0.0000   0.2286
  12.500   1.1856   0.04319   0.03956   0.0083  0.0055  1.0000  -10.5588   0.0000   0.0000   0.0000   0.2300
  12.600   1.1811   0.04566   0.04212   0.0060  0.0055  1.0000  -10.5392   0.0000   0.0000   0.0000   0.2318
  12.700   1.1762   0.04844   0.04498   0.0034  0.0055  1.0000  -10.5051   0.0000   0.0000   0.0000   0.2338
  12.800   1.1705   0.05144   0.04807   0.0007  0.0055  1.0000  -10.4545   0.0000   0.0000   0.0000   0.2359
  12.900   1.1640   0.05461   0.05132  -0.0020  0.0055  1.0000  -10.3883   0.0000   0.0000   0.0000   0.2381
  13.000   1.1567   0.05794   0.05473  -0.0047  0.0055  1.0000  -10.3070   0.0000   0.0000   0.0000   0.2402
  13.100   1.1486   0.06137   0.05823  -0.0072  0.0056  1.0000  -10.2128   0.0000   0.0000   0.0000   0.2423
  13.200   1.1398   0.06484   0.06177  -0.0097  0.0056  1.0000  -10.1067   0.0000   0.0000   0.0000   0.2444
  13.300   1.1303   0.06838   0.06537  -0.0120  0.0056  1.0000  -9.9901   0.0000   0.0000   0.0000   0.2465
  13.400   1.1205   0.07198   0.06902  -0.0144  0.0057  1.0000  -9.8653   0.0000   0.0000   0.0000   0.2485
  13.500   1.1104   0.07564   0.07274  -0.0167  0.0057  1.0000  -9.7326   0.0000   0.0000   0.0000   0.2506
  13.600   1.1000   0.07935   0.07651  -0.0189  0.0058  1.0000  -9.5931   0.0000   0.0000   0.0000   0.2527
  13.700   1.0895   0.08305   0.08026  -0.0211  0.0058  1.0000  -9.4496   0.0000   0.0000   0.0000   0.2548
  13.800   1.0788   0.08673   0.08398  -0.0232  0.0059  1.0000  -9.3038   0.0000   0.0000   0.0000   0.2568
  13.900   1.0679   0.09054   0.08784  -0.0254  0.0059  1.0000  -9.1474   0.0000   0.0000   0.0000   0.2590
  14.000   1.0571   0.09439   0.09174  -0.0276  0.0060  1.0000  -8.9881   0.0000   0.0000   0.0000   0.2613
  14.100   1.0465   0.09824   0.09562  -0.0297  0.0061  1.0000  -8.8286   0.0000   0.0000   0.0000   0.2635
  14.200   1.0354   0.10226   0.09968  -0.0319  0.0061  1.0000  -8.6536   0.0000   0.0000   0.0000   0.2659
  14.300   1.0248   0.10620   0.10365  -0.0341  0.0062  1.0000  -8.4827   0.0000   0.0000   0.0000   0.2683
  14.400   1.0136   0.11034   0.10783  -0.0363  0.0062  1.0000  -8.2949   0.0000   0.0000   0.0000   0.2708
  14.500   1.0024   0.11460   0.11213  -0.0385  0.0063  1.0000  -8.0979   0.0000   0.0000   0.0000   0.2734
  14.600   0.9912   0.11898   0.11654  -0.0408  0.0064  1.0000  -7.8925   0.0000   0.0000   0.0000   0.2762
  14.700   0.9790   0.12373   0.12134  -0.0433  0.0065  1.0000  -7.6554   0.0000   0.0000   0.0000   0.2792
  14.800   0.9658   0.12886   0.12651  -0.0459  0.0066  1.0000  -7.3838   0.0000   0.0000   0.0000   0.2826
  14.900   0.9508   0.13462   0.13231  -0.0488  0.0068  1.0000  -7.0539   0.0000   0.0000   0.0000   0.2865


