xflr5 v6.61

 Calculated polar for: S8025 (8%)

 1 1 Reynolds number fixed          Mach number fixed         

 xtrf =   1.000 (top)        1.000 (bottom)
 Mach =   0.000     Re =     0.025 e 6     Ncrit =   9.000

  alpha     CL        CD       CDp       Cm    Top Xtr Bot Xtr   Cpmin    Chinge    XCp    
 ------- -------- --------- --------- -------- ------- ------- -------- --------- ---------
 -10.000  -0.6283   0.13950   0.13000   0.0644  1.0000  0.4968  -1.6248   0.0000   0.0000   0.0000   0.3475
  -9.900  -0.6069   0.13417   0.12454   0.0639  1.0000  0.5125  -1.5989   0.0000   0.0000   0.0000   0.3503
  -9.800  -0.6143   0.13482   0.12523   0.0649  1.0000  0.5217  -1.6139   0.0000   0.0000   0.0000   0.3506
  -9.700  -0.6030   0.13127   0.12167   0.0646  1.0000  0.5322  -1.6087   0.0000   0.0000   0.0000   0.3521
  -9.600  -0.6002   0.13013   0.12053   0.0651  1.0000  0.5457  -1.6112   0.0000   0.0000   0.0000   0.3535
  -9.500  -0.6145   0.13197   0.12244   0.0665  1.0000  0.5504  -1.6343   0.0000   0.0000   0.0000   0.3534
  -9.400  -0.5881   0.12558   0.11599   0.0648  1.0000  0.5628  -1.6146   0.0000   0.0000   0.0000   0.3554
  -9.300  -0.5924   0.12561   0.11605   0.0658  1.0000  0.5737  -1.6259   0.0000   0.0000   0.0000   0.3563
  -9.200  -0.6007   0.12589   0.11639   0.0668  1.0000  0.5785  -1.6429   0.0000   0.0000   0.0000   0.3565
  -9.100  -0.5771   0.12039   0.11082   0.0650  1.0000  0.5889  -1.6279   0.0000   0.0000   0.0000   0.3579
  -9.000  -0.5823   0.12056   0.11102   0.0662  1.0000  0.6003  -1.6400   0.0000   0.0000   0.0000   0.3590
  -8.900  -0.5811   0.11889   0.10937   0.0664  1.0000  0.6065  -1.6479   0.0000   0.0000   0.0000   0.3595
  -8.800  -0.5711   0.11655   0.10700   0.0665  1.0000  0.6258  -1.6426   0.0000   0.0000   0.0000   0.3617
  -8.700  -0.5566   0.11313   0.10355   0.0661  1.0000  0.6468  -1.6326   0.0000   0.0000   0.0000   0.3640
  -8.600  -0.5704   0.11466   0.10513   0.0683  1.0000  0.6543  -1.6536   0.0000   0.0000   0.0000   0.3651
  -8.500  -0.5542   0.11098   0.10141   0.0677  1.0000  0.6779  -1.6412   0.0000   0.0000   0.0000   0.3675
  -8.400  -0.5391   0.10711   0.09750   0.0662  1.0000  0.6887  -1.6323   0.0000   0.0000   0.0000   0.3681
  -8.300  -0.5406   0.10660   0.09700   0.0672  1.0000  0.7019  -1.6392   0.0000   0.0000   0.0000   0.3696
  -8.200  -0.5372   0.10466   0.09507   0.0670  1.0000  0.7080  -1.6426   0.0000   0.0000   0.0000   0.3701
  -8.100  -0.5270   0.10229   0.09266   0.0665  1.0000  0.7253  -1.6348   0.0000   0.0000   0.0000   0.3715
  -8.000  -0.5165   0.09983   0.09015   0.0662  1.0000  0.7489  -1.6391   0.0000   0.0000   0.0000   0.3735
  -7.900  -0.5044   0.09710   0.08738   0.0655  1.0000  0.7707  -1.6410   0.0000   0.0000   0.0000   0.3750
  -7.800  -0.4984   0.09500   0.08527   0.0650  1.0000  0.7807  -1.6468   0.0000   0.0000   0.0000   0.3756
  -7.600  -0.6525   0.09673   0.08786   0.0329  1.0000  0.3187  -2.1701   0.0000   0.0000   0.0000   0.2972
  -7.500  -0.6384   0.09288   0.08397   0.0324  1.0000  0.3056  -2.1729   0.0000   0.0000   0.0000   0.2975
  -7.300  -0.6661   0.08747   0.07868   0.0193  1.0000  0.2725  -2.3792   0.0000   0.0000   0.0000   0.2759
  -7.200  -0.6562   0.08481   0.07602   0.0199  1.0000  0.2699  -2.3756   0.0000   0.0000   0.0000   0.2772
  -7.100  -0.6512   0.08233   0.07353   0.0192  1.0000  0.2668  -2.3906   0.0000   0.0000   0.0000   0.2765
  -6.900  -0.6635   0.07609   0.06721   0.0096  1.0000  0.2494  -2.5561   0.0000   0.0000   0.0000   0.2614
  -6.800  -0.6587   0.07365   0.06476   0.0089  1.0000  0.2483  -2.5723   0.0000   0.0000   0.0000   0.2605
  -6.700  -0.6549   0.07122   0.06229   0.0079  1.0000  0.2473  -2.5945   0.0000   0.0000   0.0000   0.2591
  -6.600  -0.6517   0.06878   0.05981   0.0066  1.0000  0.2466  -2.6212   0.0000   0.0000   0.0000   0.2572
  -6.500  -0.6491   0.06635   0.05731   0.0051  1.0000  0.2468  -2.6515   0.0000   0.0000   0.0000   0.2549
  -6.400  -0.6466   0.06391   0.05477   0.0034  1.0000  0.2477  -2.6850   0.0000   0.0000   0.0000   0.2523
  -6.300  -0.6376   0.06324   0.05423   0.0063  1.0000  0.2621  -2.6270   0.0000   0.0000   0.0000   0.2570
  -6.200  -0.6343   0.06099   0.05190   0.0050  1.0000  0.2652  -2.6515   0.0000   0.0000   0.0000   0.2550
  -6.100  -0.6307   0.05861   0.04939   0.0033  1.0000  0.2676  -2.6810   0.0000   0.0000   0.0000   0.2525
  -6.000  -0.6265   0.05615   0.04675   0.0016  1.0000  0.2696  -2.7133   0.0000   0.0000   0.0000   0.2498
  -5.900  -0.6215   0.05364   0.04401  -0.0001  1.0000  0.2715  -2.7476   0.0000   0.0000   0.0000   0.2470
  -5.800  -0.6129   0.05261   0.04306   0.0021  1.0000  0.2831  -2.6903   0.0000   0.0000   0.0000   0.2506
  -5.700  -0.6072   0.05068   0.04094   0.0012  1.0000  0.2917  -2.7013   0.0000   0.0000   0.0000   0.2492
  -5.600  -0.6002   0.04933   0.03962   0.0022  1.0000  0.3035  -2.6729   0.0000   0.0000   0.0000   0.2509
  -5.500  -0.5928   0.04760   0.03776   0.0019  1.0000  0.3126  -2.6666   0.0000   0.0000   0.0000   0.2505
  -5.300  -0.5779   0.04471   0.03473   0.0026  1.0000  0.3376  -2.6194   0.0000   0.0000   0.0000   0.2518
  -5.200  -0.5702   0.04326   0.03323   0.0030  1.0000  0.3505  -2.5951   0.0000   0.0000   0.0000   0.2526
  -5.100  -0.5616   0.04187   0.03171   0.0032  1.0000  0.3634  -2.5804   0.0000   0.0000   0.0000   0.2530
  -5.000  -0.5535   0.04078   0.03065   0.0043  1.0000  0.3790  -2.5489   0.0000   0.0000   0.0000   0.2551
  -4.900  -0.5454   0.03933   0.02900   0.0038  1.0000  0.3956  -2.5364   0.0000   0.0000   0.0000   0.2545
  -4.800  -0.5367   0.03852   0.02827   0.0056  1.0000  0.4127  -2.4888   0.0000   0.0000   0.0000   0.2578
  -4.700  -0.5281   0.03749   0.02723   0.0065  1.0000  0.4304  -2.4502   0.0000   0.0000   0.0000   0.2598
  -4.600  -0.5204   0.03646   0.02613   0.0072  1.0000  0.4503  -2.4161   0.0000   0.0000   0.0000   0.2614
  -4.500  -0.5123   0.03553   0.02511   0.0080  1.0000  0.4713  -2.3785   0.0000   0.0000   0.0000   0.2631
  -4.400  -0.5049   0.03494   0.02462   0.0102  1.0000  0.4932  -2.3245   0.0000   0.0000   0.0000   0.2676
  -4.300  -0.4975   0.03427   0.02401   0.0121  1.0000  0.5159  -2.2742   0.0000   0.0000   0.0000   0.2718
  -4.200  -0.4903   0.03358   0.02335   0.0139  1.0000  0.5396  -2.2251   0.0000   0.0000   0.0000   0.2758
  -4.100  -0.4835   0.03296   0.02276   0.0159  1.0000  0.5651  -2.1750   0.0000   0.0000   0.0000   0.2804
  -4.000  -0.4766   0.03234   0.02216   0.0180  1.0000  0.5913  -2.1244   0.0000   0.0000   0.0000   0.2853
  -3.900  -0.4701   0.03177   0.02163   0.0203  1.0000  0.6193  -2.0727   0.0000   0.0000   0.0000   0.2907
  -3.800  -0.4638   0.03122   0.02109   0.0227  1.0000  0.6489  -2.0213   0.0000   0.0000   0.0000   0.2964
  -3.700  -0.4578   0.03061   0.02047   0.0248  1.0000  0.6800  -1.9731   0.0000   0.0000   0.0000   0.3017
  -3.600  -0.4491   0.03030   0.02023   0.0283  1.0000  0.7133  -1.9018   0.0000   0.0000   0.0000   0.3105
  -3.500  -0.4406   0.02981   0.01970   0.0308  1.0000  0.7507  -1.8393   0.0000   0.0000   0.0000   0.3173
  -3.400  -0.2074   0.02685   0.01470  -0.0006  1.0000  1.0000  -0.9970   0.0000   0.0000   0.0000   0.2433
  -3.300  -0.2042   0.02613   0.01392  -0.0015  1.0000  1.0000  -0.9721   0.0000   0.0000   0.0000   0.2386
  -3.200  -0.2008   0.02547   0.01320  -0.0024  1.0000  1.0000  -0.9449   0.0000   0.0000   0.0000   0.2342
  -3.100  -0.1970   0.02486   0.01253  -0.0032  1.0000  1.0000  -0.9152   0.0000   0.0000   0.0000   0.2302
  -3.000  -0.1930   0.02431   0.01191  -0.0038  1.0000  1.0000  -0.8831   0.0000   0.0000   0.0000   0.2266
  -2.900  -0.1887   0.02382   0.01135  -0.0043  1.0000  1.0000  -0.8486   0.0000   0.0000   0.0000   0.2234
  -2.800  -0.1841   0.02337   0.01084  -0.0048  1.0000  1.0000  -0.8120   0.0000   0.0000   0.0000   0.2207
  -2.700  -0.1791   0.02297   0.01038  -0.0051  1.0000  1.0000  -0.7858   0.0000   0.0000   0.0000   0.2183
  -2.600  -0.1739   0.02262   0.00995  -0.0053  1.0000  1.0000  -0.7685   0.0000   0.0000   0.0000   0.2163
  -2.500  -0.1684   0.02230   0.00957  -0.0054  1.0000  1.0000  -0.7502   0.0000   0.0000   0.0000   0.2146
  -2.400  -0.1626   0.02202   0.00921  -0.0054  1.0000  1.0000  -0.7335   0.0000   0.0000   0.0000   0.2132
  -2.300  -0.1565   0.02177   0.00878  -0.0054  1.0000  1.0000  -0.7166   0.0000   0.0000   0.0000   0.2120
  -2.200  -0.1502   0.02155   0.00849  -0.0054  1.0000  1.0000  -0.6990   0.0000   0.0000   0.0000   0.2110
  -2.100  -0.1437   0.02136   0.00822  -0.0052  1.0000  1.0000  -0.6811   0.0000   0.0000   0.0000   0.2103
  -2.000  -0.1371   0.02119   0.00798  -0.0051  1.0000  1.0000  -0.6627   0.0000   0.0000   0.0000   0.2097
  -1.900  -0.1303   0.02104   0.00776  -0.0049  1.0000  1.0000  -0.6439   0.0000   0.0000   0.0000   0.2092
  -1.800  -0.1232   0.02091   0.00756  -0.0047  1.0000  1.0000  -0.6248   0.0000   0.0000   0.0000   0.2087
  -1.700  -0.1159   0.02079   0.00737  -0.0045  1.0000  1.0000  -0.6053   0.0000   0.0000   0.0000   0.2081
  -1.600  -0.1084   0.02069   0.00720  -0.0043  1.0000  1.0000  -0.5864   0.0000   0.0000   0.0000   0.2074
  -1.500  -0.1008   0.02060   0.00705  -0.0041  1.0000  1.0000  -0.5688   0.0000   0.0000   0.0000   0.2066
  -1.400  -0.0930   0.02052   0.00690  -0.0038  1.0000  1.0000  -0.5510   0.0000   0.0000   0.0000   0.2058
  -1.300  -0.0851   0.02045   0.00678  -0.0036  1.0000  1.0000  -0.5332   0.0000   0.0000   0.0000   0.2047
  -1.200  -0.0771   0.02039   0.00666  -0.0033  1.0000  1.0000  -0.5152   0.0000   0.0000   0.0000   0.2035
  -1.100  -0.0690   0.02034   0.00656  -0.0031  1.0000  1.0000  -0.4972   0.0000   0.0000   0.0000   0.2019
  -1.000  -0.0608   0.02030   0.00647  -0.0029  1.0000  1.0000  -0.4791   0.0000   0.0000   0.0000   0.1997
  -0.900  -0.0525   0.02026   0.00639  -0.0026  1.0000  1.0000  -0.4609   0.0000   0.0000   0.0000   0.1968
  -0.800  -0.0441   0.02023   0.00632  -0.0024  1.0000  1.0000  -0.4431   0.0000   0.0000   0.0000   0.1926
  -0.700  -0.0357   0.02021   0.00626  -0.0021  1.0000  1.0000  -0.4269   0.0000   0.0000   0.0000   0.1863
  -0.600  -0.0272   0.02019   0.00622  -0.0019  1.0000  1.0000  -0.4122   0.0000   0.0000   0.0000   0.1757
  -0.500  -0.0187   0.02017   0.00618  -0.0017  1.0000  1.0000  -0.3977   0.0000   0.0000   0.0000   0.1554
  -0.400  -0.0101   0.02016   0.00615  -0.0015  1.0000  1.0000  -0.3833   0.0000   0.0000   0.0000   0.1004
  -0.300  -0.0016   0.02016   0.00610  -0.0012  1.0000  1.0000  -0.3842   0.0000   0.0000   0.0000  -0.5498
  -0.200   0.0070   0.02016   0.00609  -0.0010  1.0000  1.0000  -0.3960   0.0000   0.0000   0.0000   0.3966
  -0.100   0.0155   0.02017   0.00609  -0.0008  1.0000  1.0000  -0.4077   0.0000   0.0000   0.0000   0.3001
   0.000   0.0239   0.02018   0.00610  -0.0006  1.0000  1.0000  -0.4195   0.0000   0.0000   0.0000   0.2721
   0.100   0.0324   0.02020   0.00612  -0.0003  1.0000  1.0000  -0.4312   0.0000   0.0000   0.0000   0.2588
   0.200   0.0407   0.02022   0.00615  -0.0001  1.0000  1.0000  -0.4429   0.0000   0.0000   0.0000   0.2510
   0.300   0.0489   0.02025   0.00620   0.0001  1.0000  1.0000  -0.4545   0.0000   0.0000   0.0000   0.2457
   0.400   0.0570   0.02029   0.00626   0.0003  1.0000  1.0000  -0.4659   0.0000   0.0000   0.0000   0.2420
   0.500   0.0649   0.02034   0.00633   0.0006  1.0000  1.0000  -0.4782   0.0000   0.0000   0.0000   0.2391
   0.600   0.0726   0.02040   0.00641   0.0008  1.0000  1.0000  -0.4904   0.0000   0.0000   0.0000   0.2367
   0.700   0.0800   0.02046   0.00651   0.0010  1.0000  1.0000  -0.5024   0.0000   0.0000   0.0000   0.2348
   0.800   0.0872   0.02055   0.00663   0.0013  1.0000  1.0000  -0.5140   0.0000   0.0000   0.0000   0.2331
   0.900   0.0941   0.02065   0.00677   0.0015  1.0000  1.0000  -0.5253   0.0000   0.0000   0.0000   0.2317
   1.000   0.1007   0.02076   0.00692   0.0017  1.0000  1.0000  -0.5362   0.0000   0.0000   0.0000   0.2305
   1.100   0.1068   0.02091   0.00710   0.0019  1.0000  1.0000  -0.5465   0.0000   0.0000   0.0000   0.2293
   1.200   0.1125   0.02107   0.00730   0.0021  1.0000  1.0000  -0.5563   0.0000   0.0000   0.0000   0.2283
   1.300   0.1178   0.02127   0.00753   0.0023  1.0000  1.0000  -0.5658   0.0000   0.0000   0.0000   0.2275
   1.400   0.1228   0.02150   0.00778   0.0025  1.0000  1.0000  -0.5756   0.0000   0.0000   0.0000   0.2272
   1.500   0.1276   0.02177   0.00807   0.0025  1.0000  1.0000  -0.5849   0.0000   0.0000   0.0000   0.2276
   1.600   0.1322   0.02208   0.00838   0.0025  1.0000  1.0000  -0.5937   0.0000   0.0000   0.0000   0.2285
   1.700   0.1366   0.02241   0.00873   0.0023  1.0000  1.0000  -0.6019   0.0000   0.0000   0.0000   0.2300
   1.800   0.1409   0.02278   0.00912   0.0021  1.0000  1.0000  -0.6096   0.0000   0.0000   0.0000   0.2320
   1.900   0.1452   0.02319   0.00954   0.0018  1.0000  1.0000  -0.6180   0.0000   0.0000   0.0000   0.2345
   2.000   0.1494   0.02362   0.01003   0.0014  1.0000  1.0000  -0.6260   0.0000   0.0000   0.0000   0.2375
   2.100   0.1535   0.02409   0.01050   0.0009  1.0000  1.0000  -0.6336   0.0000   0.0000   0.0000   0.2408
   2.200   0.1577   0.02458   0.01101   0.0004  1.0000  1.0000  -0.6408   0.0000   0.0000   0.0000   0.2443
   2.300   0.1619   0.02511   0.01154  -0.0002  1.0000  1.0000  -0.6477   0.0000   0.0000   0.0000   0.2481
   2.400   0.1660   0.02565   0.01210  -0.0009  1.0000  1.0000  -0.6553   0.0000   0.0000   0.0000   0.2520
   2.500   0.1703   0.02623   0.01269  -0.0016  1.0000  1.0000  -0.6629   0.0000   0.0000   0.0000   0.2559
   2.600   0.2216   0.02771   0.01438  -0.0117  0.9705  1.0000  -0.7207   0.0000   0.0000   0.0000   0.2996
   2.700   0.2941   0.02923   0.01625  -0.0243  0.9200  1.0000  -0.8074   0.0000   0.0000   0.0000   0.3300
   2.800   0.3619   0.03029   0.01768  -0.0343  0.8729  1.0000  -0.8993   0.0000   0.0000   0.0000   0.3422
   2.900   0.4044   0.03092   0.01855  -0.0386  0.8377  1.0000  -0.9627   0.0000   0.0000   0.0000   0.3430
   3.000   0.4234   0.03153   0.01926  -0.0395  0.8132  1.0000  -0.9953   0.0000   0.0000   0.0000   0.3407
   3.100   0.4408   0.03211   0.02009  -0.0397  0.7904  1.0000  -1.0306   0.0000   0.0000   0.0000   0.3377
   3.200   0.4558   0.03266   0.02071  -0.0395  0.7691  1.0000  -1.0634   0.0000   0.0000   0.0000   0.3341
   3.300   0.4703   0.03320   0.02130  -0.0389  0.7499  1.0000  -1.0983   0.0000   0.0000   0.0000   0.3302
   3.400   0.4803   0.03380   0.02196  -0.0381  0.7320  1.0000  -1.1270   0.0000   0.0000   0.0000   0.3269
   3.500   0.4876   0.03450   0.02270  -0.0374  0.7150  1.0000  -1.1495   0.0000   0.0000   0.0000   0.3242
   3.600   0.4979   0.03508   0.02330  -0.0363  0.6984  1.0000  -1.1802   0.0000   0.0000   0.0000   0.3203
   3.700   0.5078   0.03565   0.02391  -0.0352  0.6826  1.0000  -1.2151   0.0000   0.0000   0.0000   0.3167
   3.800   0.5139   0.03649   0.02480  -0.0347  0.6677  1.0000  -1.2375   0.0000   0.0000   0.0000   0.3149
   3.900   0.5250   0.03692   0.02523  -0.0329  0.6527  1.0000  -1.2791   0.0000   0.0000   0.0000   0.3100
   4.000   0.5303   0.03785   0.02623  -0.0328  0.6380  1.0000  -1.2974   0.0000   0.0000   0.0000   0.3092
   4.100   0.5403   0.03847   0.02688  -0.0315  0.6246  1.0000  -1.3333   0.0000   0.0000   0.0000   0.3057
   4.200   0.5471   0.03936   0.02783  -0.0313  0.6105  1.0000  -1.3560   0.0000   0.0000   0.0000   0.3044
   4.300   0.5560   0.04006   0.02855  -0.0301  0.5975  1.0000  -1.3884   0.0000   0.0000   0.0000   0.3014
   4.400   0.5630   0.04098   0.02954  -0.0299  0.5843  1.0000  -1.4109   0.0000   0.0000   0.0000   0.3003
   4.500   0.5723   0.04170   0.03028  -0.0286  0.5728  1.0000  -1.4443   0.0000   0.0000   0.0000   0.2972
   4.600   0.5780   0.04287   0.03154  -0.0290  0.5606  1.0000  -1.4595   0.0000   0.0000   0.0000   0.2973
   4.700   0.5884   0.04330   0.03195  -0.0268  0.5483  1.0000  -1.5074   0.0000   0.0000   0.0000   0.2927
   4.800   0.5926   0.04478   0.03355  -0.0280  0.5374  1.0000  -1.5168   0.0000   0.0000   0.0000   0.2942
   4.900   0.6026   0.04535   0.03415  -0.0263  0.5261  1.0000  -1.5612   0.0000   0.0000   0.0000   0.2906
   5.000   0.6078   0.04681   0.03581  -0.0269  0.5170  1.0000  -1.5756   0.0000   0.0000   0.0000   0.2913
   5.100   0.6140   0.04797   0.03704  -0.0269  0.5062  1.0000  -1.5971   0.0000   0.0000   0.0000   0.2908
   5.200   0.6239   0.04850   0.03758  -0.0248  0.4948  1.0000  -1.6437   0.0000   0.0000   0.0000   0.2867
   5.300   0.6265   0.05036   0.03954  -0.0265  0.4870  1.0000  -1.6422   0.0000   0.0000   0.0000   0.2892
   5.400   0.6337   0.05151   0.04076  -0.0262  0.4781  1.0000  -1.6668   0.0000   0.0000   0.0000   0.2883
   5.500   0.6429   0.05231   0.04157  -0.0246  0.4682  1.0000  -1.7070   0.0000   0.0000   0.0000   0.2851
   5.600   0.6442   0.05432   0.04367  -0.0264  0.4618  1.0000  -1.6992   0.0000   0.0000   0.0000   0.2878
   5.700   0.6503   0.05552   0.04493  -0.0262  0.4525  1.0000  -1.7195   0.0000   0.0000   0.0000   0.2871
   5.800   0.6610   0.05622   0.04564  -0.0241  0.4427  1.0000  -1.7660   0.0000   0.0000   0.0000   0.2832
   5.900   0.6617   0.05850   0.04800  -0.0263  0.4395  1.0000  -1.7519   0.0000   0.0000   0.0000   0.2864
   6.000   0.6627   0.06059   0.05015  -0.0280  0.4360  1.0000  -1.7419   0.0000   0.0000   0.0000   0.2888
   6.100   0.6649   0.06241   0.05201  -0.0290  0.4311  1.0000  -1.7403   0.0000   0.0000   0.0000   0.2902
   6.200   0.6797   0.06257   0.05220  -0.0254  0.4167  1.0000  -1.8073   0.0000   0.0000   0.0000   0.2838
   6.300   0.6785   0.06488   0.05455  -0.0275  0.4145  1.0000  -1.7872   0.0000   0.0000   0.0000   0.2870
   6.400   0.6780   0.06709   0.05680  -0.0293  0.4127  1.0000  -1.7711   0.0000   0.0000   0.0000   0.2897
   6.500   0.6782   0.06930   0.05903  -0.0310  0.4121  1.0000  -1.7576   0.0000   0.0000   0.0000   0.2920
   6.600   0.6787   0.07152   0.06126  -0.0325  0.4122  1.0000  -1.7447   0.0000   0.0000   0.0000   0.2943
   6.700   0.6790   0.07369   0.06344  -0.0341  0.4123  1.0000  -1.7319   0.0000   0.0000   0.0000   0.2965
   6.800   0.6789   0.07581   0.06557  -0.0355  0.4125  1.0000  -1.7189   0.0000   0.0000   0.0000   0.2985
   6.900   0.6786   0.07789   0.06764  -0.0369  0.4126  1.0000  -1.7059   0.0000   0.0000   0.0000   0.3005
   7.000   0.6782   0.07992   0.06967  -0.0381  0.4127  1.0000  -1.6931   0.0000   0.0000   0.0000   0.3024
   7.100   0.6778   0.08191   0.07166  -0.0394  0.4128  1.0000  -1.6807   0.0000   0.0000   0.0000   0.3042
   7.200   0.6775   0.08389   0.07363  -0.0405  0.4131  1.0000  -1.6699   0.0000   0.0000   0.0000   0.3058
   7.300   0.6777   0.08585   0.07559  -0.0415  0.4139  1.0000  -1.6631   0.0000   0.0000   0.0000   0.3072
   7.400   0.6796   0.08792   0.07766  -0.0423  0.4154  1.0000  -1.6612   0.0000   0.0000   0.0000   0.3082
   7.500   0.6895   0.09056   0.08041  -0.0432  0.4192  1.0000  -1.6784   0.0000   0.0000   0.0000   0.3085
   7.600   0.6643   0.09262   0.08227  -0.0479  0.4481  1.0000  -1.5723   0.0000   0.0000   0.0000   0.3178
   8.000   0.5129   0.09393   0.08260  -0.0642  0.8594  1.0000  -1.1499   0.0000   0.0000   0.0000   0.3695
   8.100   0.5157   0.09496   0.08366  -0.0640  0.8437  1.0000  -1.1543   0.0000   0.0000   0.0000   0.3684
   8.200   0.5210   0.09656   0.08530  -0.0643  0.8297  1.0000  -1.1614   0.0000   0.0000   0.0000   0.3678
   8.300   0.5324   0.09902   0.08794  -0.0656  0.8132  1.0000  -1.1760   0.0000   0.0000   0.0000   0.3675
   8.400   0.5438   0.10139   0.09038  -0.0665  0.7923  1.0000  -1.1912   0.0000   0.0000   0.0000   0.3667
   8.500   0.5549   0.10374   0.09279  -0.0673  0.7704  1.0000  -1.2060   0.0000   0.0000   0.0000   0.3655
   8.600   0.5723   0.10723   0.09636  -0.0690  0.7508  1.0000  -1.2276   0.0000   0.0000   0.0000   0.3649
   8.700   0.5690   0.10728   0.09642  -0.0676  0.7363  1.0000  -1.2230   0.0000   0.0000   0.0000   0.3632
   8.800   0.5865   0.11132   0.10053  -0.0699  0.7274  1.0000  -1.2412   0.0000   0.0000   0.0000   0.3634
   8.900   0.5785   0.11066   0.09986  -0.0679  0.7147  1.0000  -1.2305   0.0000   0.0000   0.0000   0.3616
   9.000   0.5980   0.11500   0.10428  -0.0701  0.7028  1.0000  -1.2583   0.0000   0.0000   0.0000   0.3615
   9.100   0.5902   0.11431   0.10357  -0.0682  0.6898  1.0000  -1.2486   0.0000   0.0000   0.0000   0.3598
   9.200   0.6033   0.11754   0.10686  -0.0692  0.6756  1.0000  -1.2716   0.0000   0.0000   0.0000   0.3589
   9.300   0.6258   0.12226   0.11168  -0.0708  0.6537  1.0000  -1.3109   0.0000   0.0000   0.0000   0.3573
   9.400   0.6105   0.12041   0.10977  -0.0685  0.6474  1.0000  -1.2871   0.0000   0.0000   0.0000   0.3563
   9.500   0.6231   0.12316   0.11259  -0.0691  0.6321  1.0000  -1.3090   0.0000   0.0000   0.0000   0.3550
   9.600   0.6301   0.12588   0.11534  -0.0697  0.6262  1.0000  -1.3183   0.0000   0.0000   0.0000   0.3547
   9.700   0.6208   0.12495   0.11438  -0.0682  0.6166  1.0000  -1.3042   0.0000   0.0000   0.0000   0.3538
   9.800   0.6371   0.12866   0.11817  -0.0694  0.6055  1.0000  -1.3293   0.0000   0.0000   0.0000   0.3528
   9.900   0.6401   0.13068   0.12019  -0.0695  0.5996  1.0000  -1.3376   0.0000   0.0000   0.0000   0.3524
  10.000   0.6324   0.12996   0.11945  -0.0682  0.5899  1.0000  -1.3263   0.0000   0.0000   0.0000   0.3516
  10.100   0.6573   0.13583   0.12542  -0.0698  0.5751  1.0000  -1.4115   0.0000   0.0000   0.0000   0.3501
  10.200   0.6442   0.13416   0.12370  -0.0684  0.5697  1.0000  -1.3820   0.0000   0.0000   0.0000   0.3499
  10.300   0.6748   0.14116   0.13083  -0.0700  0.5497  1.0000  -1.4879   0.0000   0.0000   0.0000   0.3475
  10.400   0.6608   0.13929   0.12890  -0.0687  0.5470  1.0000  -1.4534   0.0000   0.0000   0.0000   0.3477
  10.500   0.6524   0.13843   0.12801  -0.0677  0.5390  1.0000  -1.4380   0.0000   0.0000   0.0000   0.3474
  10.600   0.6638   0.14131   0.13095  -0.0681  0.5284  1.0000  -1.4828   0.0000   0.0000   0.0000   0.3462
  10.700   0.6816   0.14671   0.13641  -0.0694  0.5226  1.0000  -1.5425   0.0000   0.0000   0.0000   0.3454
  10.800   0.6677   0.14469   0.13432  -0.0682  0.5186  1.0000  -1.5081   0.0000   0.0000   0.0000   0.3457
  10.900   0.6644   0.14478   0.13441  -0.0678  0.5106  1.0000  -1.5066   0.0000   0.0000   0.0000   0.3454
  11.000   0.6747   0.14762   0.13730  -0.0681  0.5024  1.0000  -1.5465   0.0000   0.0000   0.0000   0.3444
  11.100   0.6924   0.15319   0.14294  -0.0693  0.4961  1.0000  -1.6065   0.0000   0.0000   0.0000   0.3434
  11.200   0.6800   0.15133   0.14102  -0.0684  0.4926  1.0000  -1.5748   0.0000   0.0000   0.0000   0.3439
  11.300   0.6760   0.15118   0.14086  -0.0680  0.4847  1.0000  -1.5703   0.0000   0.0000   0.0000   0.3437
  11.400   0.7077   0.15959   0.14950  -0.0692  0.4703  1.0000  -1.6805   0.0000   0.0000   0.0000   0.3410
  11.500   0.6960   0.15782   0.14757  -0.0686  0.4684  1.0000  -1.6471   0.0000   0.0000   0.0000   0.3417
  11.600   0.6871   0.15657   0.14629  -0.0681  0.4631  1.0000  -1.6254   0.0000   0.0000   0.0000   0.3422
  11.700   0.6906   0.15790   0.14774  -0.0679  0.4530  1.0000  -1.6468   0.0000   0.0000   0.0000   0.3414
  11.800   0.7154   0.16539   0.15532  -0.0688  0.4439  1.0000  -1.7337   0.0000   0.0000   0.0000   0.3392
  11.900   0.7041   0.16351   0.15339  -0.0685  0.4415  1.0000  -1.7018   0.0000   0.0000   0.0000   0.3401
  12.000   0.6976   0.16271   0.15256  -0.0682  0.4362  1.0000  -1.6860   0.0000   0.0000   0.0000   0.3406
  12.100   0.6996   0.16389   0.15376  -0.0683  0.4295  1.0000  -1.6977   0.0000   0.0000   0.0000   0.3403
  12.200   0.7113   0.16748   0.15741  -0.0686  0.4228  1.0000  -1.7407   0.0000   0.0000   0.0000   0.3391
  12.300   0.7300   0.17426   0.16425  -0.0694  0.4182  1.0000  -1.8005   0.0000   0.0000   0.0000   0.3378
  12.400   0.7192   0.17225   0.16219  -0.0692  0.4164  1.0000  -1.7688   0.0000   0.0000   0.0000   0.3389
  12.500   0.7118   0.17105   0.16096  -0.0692  0.4122  1.0000  -1.7482   0.0000   0.0000   0.0000   0.3397
  12.600   0.7115   0.17166   0.16156  -0.0693  0.4064  1.0000  -1.7502   0.0000   0.0000   0.0000   0.3397
  12.700   0.7176   0.17388   0.16382  -0.0694  0.4003  1.0000  -1.7728   0.0000   0.0000   0.0000   0.3391
  12.800   0.7451   0.18338   0.17342  -0.0701  0.3929  1.0000  -1.8599   0.0000   0.0000   0.0000   0.3364
  12.900   0.7353   0.18141   0.17140  -0.0701  0.3916  1.0000  -1.8298   0.0000   0.0000   0.0000   0.3376
  13.000   0.7271   0.17976   0.16972  -0.0702  0.3887  1.0000  -1.8048   0.0000   0.0000   0.0000   0.3387
  13.100   0.7243   0.17956   0.16951  -0.0703  0.3831  1.0000  -1.7971   0.0000   0.0000   0.0000   0.3391
  13.200   0.7295   0.18149   0.17146  -0.0703  0.3756  1.0000  -1.8163   0.0000   0.0000   0.0000   0.3384
  13.300   0.7519   0.18985   0.17991  -0.0705  0.3673  1.0000  -1.8866   0.0000   0.0000   0.0000   0.3359
  13.400   0.7433   0.18795   0.17796  -0.0708  0.3657  1.0000  -1.8587   0.0000   0.0000   0.0000   0.3371
  13.500   0.7372   0.18666   0.17664  -0.0710  0.3620  1.0000  -1.8384   0.0000   0.0000   0.0000   0.3381
  13.600   0.7369   0.18708   0.17706  -0.0712  0.3559  1.0000  -1.8370   0.0000   0.0000   0.0000   0.3384
  13.700   0.7443   0.18978   0.17981  -0.0712  0.3490  1.0000  -1.8610   0.0000   0.0000   0.0000   0.3374
  13.800   0.7707   0.20038   0.19050  -0.0715  0.3431  1.0000  -1.9352   0.0000   0.0000   0.0000   0.3345
  13.900   0.7623   0.19831   0.18838  -0.0719  0.3422  1.0000  -1.9064   0.0000   0.0000   0.0000   0.3358
  14.000   0.7551   0.19648   0.18652  -0.0723  0.3403  1.0000  -1.8809   0.0000   0.0000   0.0000   0.3372
  14.100   0.7512   0.19570   0.18572  -0.0727  0.3368  1.0000  -1.8648   0.0000   0.0000   0.0000   0.3381
  14.200   0.7517   0.19637   0.18639  -0.0731  0.3321  1.0000  -1.8621   0.0000   0.0000   0.0000   0.3385
  14.300   0.7558   0.19821   0.18825  -0.0733  0.3273  1.0000  -1.8704   0.0000   0.0000   0.0000   0.3382
  14.400   0.7656   0.20222   0.19231  -0.0733  0.3225  1.0000  -1.8956   0.0000   0.0000   0.0000   0.3369
  14.500   0.7836   0.21090   0.20104  -0.0735  0.3187  1.0000  -1.9370   0.0000   0.0000   0.0000   0.3350
  14.600   0.7765   0.20879   0.19889  -0.0741  0.3178  1.0000  -1.9100   0.0000   0.0000   0.0000   0.3364
  14.700   0.7709   0.20708   0.19715  -0.0747  0.3159  1.0000  -1.8865   0.0000   0.0000   0.0000   0.3378
  14.800   0.7683   0.20649   0.19654  -0.0753  0.3125  1.0000  -1.8714   0.0000   0.0000   0.0000   0.3388
  14.900   0.7693   0.20722   0.19728  -0.0758  0.3081  1.0000  -1.8666   0.0000   0.0000   0.0000   0.3391
  15.000   0.7736   0.20914   0.19922  -0.0760  0.3032  1.0000  -1.8720   0.0000   0.0000   0.0000   0.3388


