xflr5 v6.61

 Calculated polar for: S8025 (8%)

 1 1 Reynolds number fixed          Mach number fixed         

 xtrf =   1.000 (top)        1.000 (bottom)
 Mach =   0.000     Re =     0.200 e 6     Ncrit =   9.000

  alpha     CL        CD       CDp       Cm    Top Xtr Bot Xtr   Cpmin    Chinge    XCp    
 ------- -------- --------- --------- -------- ------- ------- -------- --------- ---------
 -10.000  -0.6754   0.11686   0.11340   0.0346  1.0000  0.0419  -1.9139   0.0000   0.0000   0.0000   0.2960
  -9.900  -0.6748   0.11514   0.11169   0.0338  1.0000  0.0424  -1.9229   0.0000   0.0000   0.0000   0.2950
  -9.800  -0.6745   0.11337   0.10993   0.0329  1.0000  0.0428  -1.9353   0.0000   0.0000   0.0000   0.2938
  -7.500  -0.7321   0.04206   0.03719  -0.0113  1.0000  0.0207  -4.0066   0.0000   0.0000   0.0000   0.2296
  -7.400  -0.7296   0.03949   0.03452  -0.0114  1.0000  0.0200  -4.0324   0.0000   0.0000   0.0000   0.2294
  -7.300  -0.7255   0.03738   0.03222  -0.0114  1.0000  0.0195  -4.0561   0.0000   0.0000   0.0000   0.2293
  -7.200  -0.7206   0.03533   0.02998  -0.0113  1.0000  0.0189  -4.0838   0.0000   0.0000   0.0000   0.2294
  -7.100  -0.7152   0.03326   0.02767  -0.0111  1.0000  0.0182  -4.1264   0.0000   0.0000   0.0000   0.2296
  -7.000  -0.7092   0.03108   0.02519  -0.0108  1.0000  0.0174  -4.1933   0.0000   0.0000   0.0000   0.2300
  -6.900  -0.7028   0.02876   0.02248  -0.0102  1.0000  0.0166  -4.2966   0.0000   0.0000   0.0000   0.2306
  -6.800  -0.6949   0.02696   0.02035  -0.0097  1.0000  0.0159  -4.3647   0.0000   0.0000   0.0000   0.2312
  -6.700  -0.6859   0.02571   0.01887  -0.0093  1.0000  0.0156  -4.3747   0.0000   0.0000   0.0000   0.2318
  -6.600  -0.6766   0.02472   0.01770  -0.0089  1.0000  0.0153  -4.3536   0.0000   0.0000   0.0000   0.2322
  -6.500  -0.6672   0.02383   0.01666  -0.0085  1.0000  0.0152  -4.3178   0.0000   0.0000   0.0000   0.2326
  -6.400  -0.6577   0.02297   0.01569  -0.0082  1.0000  0.0152  -4.2757   0.0000   0.0000   0.0000   0.2330
  -6.300  -0.6482   0.02213   0.01474  -0.0078  1.0000  0.0152  -4.2310   0.0000   0.0000   0.0000   0.2334
  -6.200  -0.6387   0.02130   0.01383  -0.0075  1.0000  0.0152  -4.1846   0.0000   0.0000   0.0000   0.2338
  -6.100  -0.6293   0.02050   0.01296  -0.0072  1.0000  0.0153  -4.1362   0.0000   0.0000   0.0000   0.2342
  -6.000  -0.6199   0.01974   0.01214  -0.0068  1.0000  0.0155  -4.0848   0.0000   0.0000   0.0000   0.2346
  -5.900  -0.6105   0.01903   0.01139  -0.0065  1.0000  0.0157  -4.0291   0.0000   0.0000   0.0000   0.2351
  -5.800  -0.6011   0.01840   0.01072  -0.0062  1.0000  0.0160  -3.9686   0.0000   0.0000   0.0000   0.2355
  -5.700  -0.5915   0.01783   0.01011  -0.0059  1.0000  0.0164  -3.9051   0.0000   0.0000   0.0000   0.2359
  -5.600  -0.5818   0.01730   0.00956  -0.0056  1.0000  0.0170  -3.8406   0.0000   0.0000   0.0000   0.2363
  -5.500  -0.5721   0.01682   0.00904  -0.0053  1.0000  0.0176  -3.7779   0.0000   0.0000   0.0000   0.2367
  -5.400  -0.5623   0.01635   0.00853  -0.0050  1.0000  0.0185  -3.7186   0.0000   0.0000   0.0000   0.2371
  -5.300  -0.5523   0.01591   0.00804  -0.0047  1.0000  0.0196  -3.6642   0.0000   0.0000   0.0000   0.2376
  -5.200  -0.5421   0.01553   0.00759  -0.0044  1.0000  0.0209  -3.6114   0.0000   0.0000   0.0000   0.2380
  -5.100  -0.5329   0.01485   0.00690  -0.0041  1.0000  0.0235  -3.5782   0.0000   0.0000   0.0000   0.2386
  -5.000  -0.5227   0.01447   0.00646  -0.0038  1.0000  0.0271  -3.5135   0.0000   0.0000   0.0000   0.2390
  -4.900  -0.5136   0.01363   0.00575  -0.0034  1.0000  0.0472  -3.5476   0.0000   0.0000   0.0000   0.2397
  -4.800  -0.5043   0.01305   0.00546  -0.0033  1.0000  0.0854  -3.4892   0.0000   0.0000   0.0000   0.2400
  -4.700  -0.4942   0.01280   0.00533  -0.0032  1.0000  0.1041  -3.3757   0.0000   0.0000   0.0000   0.2401
  -4.600  -0.4839   0.01263   0.00525  -0.0031  1.0000  0.1224  -3.2511   0.0000   0.0000   0.0000   0.2401
  -4.500  -0.4736   0.01246   0.00516  -0.0031  1.0000  0.1394  -3.1261   0.0000   0.0000   0.0000   0.2401
  -4.400  -0.4633   0.01226   0.00501  -0.0030  1.0000  0.1543  -3.0059   0.0000   0.0000   0.0000   0.2403
  -4.300  -0.4529   0.01206   0.00483  -0.0028  1.0000  0.1690  -2.8875   0.0000   0.0000   0.0000   0.2405
  -4.200  -0.4428   0.01182   0.00466  -0.0027  1.0000  0.1846  -2.7703   0.0000   0.0000   0.0000   0.2408
  -4.100  -0.4327   0.01155   0.00448  -0.0025  1.0000  0.2009  -2.6547   0.0000   0.0000   0.0000   0.2411
  -4.000  -0.4226   0.01131   0.00432  -0.0023  1.0000  0.2186  -2.5393   0.0000   0.0000   0.0000   0.2414
  -3.900  -0.4124   0.01108   0.00416  -0.0022  1.0000  0.2374  -2.4246   0.0000   0.0000   0.0000   0.2417
  -3.800  -0.4023   0.01087   0.00402  -0.0020  1.0000  0.2572  -2.3108   0.0000   0.0000   0.0000   0.2420
  -3.700  -0.3921   0.01066   0.00388  -0.0018  1.0000  0.2778  -2.1981   0.0000   0.0000   0.0000   0.2424
  -3.600  -0.3819   0.01046   0.00376  -0.0017  1.0000  0.2992  -2.0868   0.0000   0.0000   0.0000   0.2428
  -3.500  -0.3718   0.01026   0.00364  -0.0015  1.0000  0.3219  -1.9772   0.0000   0.0000   0.0000   0.2432
  -3.400  -0.3618   0.01006   0.00354  -0.0013  1.0000  0.3458  -1.8829   0.0000   0.0000   0.0000   0.2437
  -3.300  -0.3517   0.00987   0.00340  -0.0011  1.0000  0.3706  -1.7924   0.0000   0.0000   0.0000   0.2442
  -3.200  -0.3417   0.00969   0.00332  -0.0008  1.0000  0.3958  -1.7093   0.0000   0.0000   0.0000   0.2448
  -3.100  -0.3318   0.00951   0.00323  -0.0006  1.0000  0.4211  -1.6273   0.0000   0.0000   0.0000   0.2456
  -3.000  -0.3218   0.00934   0.00316  -0.0003  1.0000  0.4466  -1.5465   0.0000   0.0000   0.0000   0.2463
  -2.900  -0.3119   0.00918   0.00310  -0.0001  1.0000  0.4728  -1.4671   0.0000   0.0000   0.0000   0.2473
  -2.800  -0.3021   0.00902   0.00305   0.0003  1.0000  0.4997  -1.3890   0.0000   0.0000   0.0000   0.2484
  -2.700  -0.2924   0.00886   0.00300   0.0006  1.0000  0.5273  -1.3123   0.0000   0.0000   0.0000   0.2496
  -2.600  -0.2827   0.00872   0.00296   0.0010  1.0000  0.5545  -1.2370   0.0000   0.0000   0.0000   0.2511
  -2.500  -0.2731   0.00858   0.00293   0.0014  1.0000  0.5811  -1.1629   0.0000   0.0000   0.0000   0.2527
  -2.400  -0.2634   0.00845   0.00289   0.0018  1.0000  0.6067  -1.0902   0.0000   0.0000   0.0000   0.2545
  -2.300  -0.2538   0.00833   0.00286   0.0022  1.0000  0.6310  -1.0187   0.0000   0.0000   0.0000   0.2565
  -2.200  -0.2441   0.00822   0.00283   0.0027  1.0000  0.6541  -0.9485   0.0000   0.0000   0.0000   0.2587
  -2.100  -0.2346   0.00811   0.00281   0.0032  1.0000  0.6757  -0.8801   0.0000   0.0000   0.0000   0.2613
  -2.000  -0.2252   0.00800   0.00279   0.0037  1.0000  0.6970  -0.8190   0.0000   0.0000   0.0000   0.2641
  -1.900  -0.2158   0.00790   0.00277   0.0042  1.0000  0.7181  -0.7907   0.0000   0.0000   0.0000   0.2674
  -1.800  -0.2064   0.00781   0.00275   0.0048  1.0000  0.7390  -0.7654   0.0000   0.0000   0.0000   0.2710
  -1.700  -0.1972   0.00772   0.00269   0.0054  1.0000  0.7606  -0.7404   0.0000   0.0000   0.0000   0.2752
  -1.600  -0.1881   0.00763   0.00268   0.0060  1.0000  0.7822  -0.7157   0.0000   0.0000   0.0000   0.2801
  -1.500  -0.1792   0.00755   0.00268   0.0067  1.0000  0.8039  -0.6913   0.0000   0.0000   0.0000   0.2856
  -1.400  -0.1702   0.00748   0.00267   0.0075  1.0000  0.8258  -0.6671   0.0000   0.0000   0.0000   0.2919
  -1.300  -0.1611   0.00741   0.00268   0.0082  1.0000  0.8480  -0.6428   0.0000   0.0000   0.0000   0.2989
  -1.200  -0.1514   0.00736   0.00268   0.0088  1.0000  0.8709  -0.6178   0.0000   0.0000   0.0000   0.3062
  -1.000  -0.1255   0.00730   0.00269   0.0087  1.0000  0.9171  -0.5619   0.0000   0.0000   0.0000   0.3172
  -0.900  -0.1079   0.00729   0.00269   0.0076  1.0000  0.9389  -0.5320   0.0000   0.0000   0.0000   0.3182
  -0.800  -0.0870   0.00729   0.00269   0.0057  1.0000  0.9569  -0.4989   0.0000   0.0000   0.0000   0.3133
  -0.700  -0.0657   0.00728   0.00267   0.0037  1.0000  0.9726  -0.4658   0.0000   0.0000   0.0000   0.3036
  -0.600  -0.0440   0.00727   0.00265   0.0015  1.0000  0.9851  -0.4327   0.0000   0.0000   0.0000   0.2811
  -0.500  -0.0217   0.00726   0.00263  -0.0009  1.0000  0.9963  -0.4029   0.0000   0.0000   0.0000   0.2056
  -0.400  -0.0083   0.00724   0.00260  -0.0016  1.0000  1.0000  -0.3841   0.0000   0.0000   0.0000   0.0544
  -0.300  -0.0007   0.00723   0.00257  -0.0011  1.0000  1.0000  -0.3897   0.0000   0.0000   0.0000  -1.4203
  -0.100   0.0437   0.00725   0.00256  -0.0058  0.9536  1.0000  -0.4346   0.0000   0.0000   0.0000   0.3810
   0.000   0.0657   0.00727   0.00254  -0.0079  0.9237  1.0000  -0.4573   0.0000   0.0000   0.0000   0.3687
   0.100   0.0828   0.00730   0.00250  -0.0089  0.8912  1.0000  -0.4781   0.0000   0.0000   0.0000   0.3556
   0.200   0.0950   0.00734   0.00246  -0.0088  0.8601  1.0000  -0.4953   0.0000   0.0000   0.0000   0.3409
   0.300   0.1045   0.00741   0.00243  -0.0082  0.8320  1.0000  -0.5104   0.0000   0.0000   0.0000   0.3266
   0.400   0.1133   0.00749   0.00240  -0.0074  0.8065  1.0000  -0.5250   0.0000   0.0000   0.0000   0.3142
   0.500   0.1221   0.00757   0.00238  -0.0068  0.7831  1.0000  -0.5397   0.0000   0.0000   0.0000   0.3038
   0.600   0.1311   0.00766   0.00237  -0.0062  0.7614  1.0000  -0.5545   0.0000   0.0000   0.0000   0.2953
   0.700   0.1403   0.00776   0.00236  -0.0056  0.7413  1.0000  -0.5695   0.0000   0.0000   0.0000   0.2883
   0.800   0.1496   0.00785   0.00235  -0.0051  0.7225  1.0000  -0.5846   0.0000   0.0000   0.0000   0.2824
   1.000   0.1686   0.00803   0.00236  -0.0042  0.6861  1.0000  -0.6166   0.0000   0.0000   0.0000   0.2732
   1.100   0.1783   0.00812   0.00236  -0.0039  0.6687  1.0000  -0.6339   0.0000   0.0000   0.0000   0.2696
   1.200   0.1879   0.00823   0.00237  -0.0034  0.6519  1.0000  -0.6512   0.0000   0.0000   0.0000   0.2663
   1.300   0.1977   0.00831   0.00239  -0.0031  0.6342  1.0000  -0.6695   0.0000   0.0000   0.0000   0.2637
   1.400   0.2076   0.00840   0.00240  -0.0028  0.6176  1.0000  -0.6891   0.0000   0.0000   0.0000   0.2613
   1.500   0.2174   0.00851   0.00241  -0.0024  0.6017  1.0000  -0.7110   0.0000   0.0000   0.0000   0.2590
   1.600   0.2275   0.00859   0.00243  -0.0022  0.5851  1.0000  -0.7333   0.0000   0.0000   0.0000   0.2573
   1.700   0.2374   0.00869   0.00244  -0.0019  0.5698  1.0000  -0.7557   0.0000   0.0000   0.0000   0.2556
   1.800   0.2475   0.00879   0.00246  -0.0016  0.5541  1.0000  -0.7782   0.0000   0.0000   0.0000   0.2541
   1.900   0.2577   0.00888   0.00249  -0.0014  0.5393  1.0000  -0.8010   0.0000   0.0000   0.0000   0.2529
   2.000   0.2677   0.00899   0.00251  -0.0011  0.5251  1.0000  -0.8257   0.0000   0.0000   0.0000   0.2517
   2.100   0.2780   0.00907   0.00255  -0.0009  0.5109  1.0000  -0.8517   0.0000   0.0000   0.0000   0.2508
   2.300   0.2985   0.00927   0.00263  -0.0005  0.4843  1.0000  -0.9041   0.0000   0.0000   0.0000   0.2490
   2.400   0.3086   0.00940   0.00266  -0.0002  0.4717  1.0000  -0.9304   0.0000   0.0000   0.0000   0.2482
   2.500   0.3192   0.00947   0.00272  -0.0001  0.4586  1.0000  -0.9572   0.0000   0.0000   0.0000   0.2476
   2.600   0.3293   0.00960   0.00276   0.0002  0.4464  1.0000  -0.9838   0.0000   0.0000   0.0000   0.2469
   2.700   0.3398   0.00968   0.00282   0.0003  0.4340  1.0000  -1.0110   0.0000   0.0000   0.0000   0.2464
   2.800   0.3501   0.00981   0.00287   0.0005  0.4223  1.0000  -1.0381   0.0000   0.0000   0.0000   0.2458
   2.900   0.3606   0.00991   0.00294   0.0007  0.4110  1.0000  -1.0654   0.0000   0.0000   0.0000   0.2454
   3.000   0.3710   0.01002   0.00306   0.0008  0.3995  1.0000  -1.0929   0.0000   0.0000   0.0000   0.2449
   3.100   0.3814   0.01014   0.00313   0.0010  0.3888  1.0000  -1.1223   0.0000   0.0000   0.0000   0.2445
   3.200   0.3919   0.01024   0.00321   0.0012  0.3774  1.0000  -1.1540   0.0000   0.0000   0.0000   0.2441
   3.300   0.4021   0.01039   0.00327   0.0013  0.3670  1.0000  -1.1858   0.0000   0.0000   0.0000   0.2437
   3.400   0.4128   0.01047   0.00336   0.0015  0.3558  1.0000  -1.2235   0.0000   0.0000   0.0000   0.2434
   3.500   0.4230   0.01062   0.00343   0.0016  0.3454  1.0000  -1.2662   0.0000   0.0000   0.0000   0.2430
   3.600   0.4336   0.01071   0.00353   0.0018  0.3351  1.0000  -1.3097   0.0000   0.0000   0.0000   0.2428
   3.700   0.4440   0.01084   0.00360   0.0019  0.3246  1.0000  -1.3535   0.0000   0.0000   0.0000   0.2425
   3.800   0.4544   0.01098   0.00370   0.0021  0.3149  1.0000  -1.3974   0.0000   0.0000   0.0000   0.2422
   3.900   0.4650   0.01108   0.00379   0.0022  0.3047  1.0000  -1.4422   0.0000   0.0000   0.0000   0.2420
   4.100   0.4859   0.01134   0.00400   0.0025  0.2860  1.0000  -1.5334   0.0000   0.0000   0.0000   0.2415
   4.200   0.4963   0.01149   0.00410   0.0026  0.2768  1.0000  -1.5867   0.0000   0.0000   0.0000   0.2413
   4.300   0.5067   0.01164   0.00422   0.0027  0.2681  1.0000  -1.6403   0.0000   0.0000   0.0000   0.2410
   4.400   0.5173   0.01175   0.00433   0.0028  0.2590  1.0000  -1.6950   0.0000   0.0000   0.0000   0.2409
   4.500   0.5274   0.01197   0.00446   0.0030  0.2504  1.0000  -1.7489   0.0000   0.0000   0.0000   0.2406
   4.600   0.5382   0.01205   0.00464   0.0031  0.2419  1.0000  -1.8053   0.0000   0.0000   0.0000   0.2405
   4.700   0.5486   0.01220   0.00475   0.0032  0.2335  1.0000  -1.8609   0.0000   0.0000   0.0000   0.2403
   4.800   0.5589   0.01240   0.00491   0.0034  0.2257  1.0000  -1.9160   0.0000   0.0000   0.0000   0.2401
   4.900   0.5696   0.01251   0.00506   0.0035  0.2177  1.0000  -1.9725   0.0000   0.0000   0.0000   0.2399
   5.000   0.5797   0.01272   0.00520   0.0036  0.2100  1.0000  -2.0285   0.0000   0.0000   0.0000   0.2397
   5.100   0.5903   0.01288   0.00537   0.0037  0.2023  1.0000  -2.0850   0.0000   0.0000   0.0000   0.2395
   5.200   0.6007   0.01302   0.00551   0.0039  0.1945  1.0000  -2.1426   0.0000   0.0000   0.0000   0.2393
   5.300   0.6107   0.01329   0.00570   0.0040  0.1869  1.0000  -2.1987   0.0000   0.0000   0.0000   0.2391
   5.400   0.6214   0.01338   0.00586   0.0041  0.1792  1.0000  -2.2572   0.0000   0.0000   0.0000   0.2390
   5.500   0.6316   0.01359   0.00601   0.0042  0.1718  1.0000  -2.3152   0.0000   0.0000   0.0000   0.2388
   5.600   0.6419   0.01380   0.00623   0.0044  0.1646  1.0000  -2.3723   0.0000   0.0000   0.0000   0.2387
   5.700   0.6524   0.01394   0.00638   0.0045  0.1571  1.0000  -2.4315   0.0000   0.0000   0.0000   0.2385
   5.800   0.6621   0.01426   0.00661   0.0046  0.1500  1.0000  -2.4882   0.0000   0.0000   0.0000   0.2383
   5.900   0.6729   0.01437   0.00679   0.0047  0.1430  1.0000  -2.5956   0.0000   0.0000   0.0000   0.2382
   6.000   0.6830   0.01458   0.00697   0.0048  0.1364  1.0000  -2.7064   0.0000   0.0000   0.0000   0.2380
   6.100   0.6931   0.01485   0.00723   0.0050  0.1299  1.0000  -2.8156   0.0000   0.0000   0.0000   0.2378
   6.200   0.7035   0.01501   0.00746   0.0051  0.1234  1.0000  -2.9376   0.0000   0.0000   0.0000   0.2377
   6.300   0.7129   0.01543   0.00778   0.0053  0.1175  1.0000  -3.0473   0.0000   0.0000   0.0000   0.2375
   6.400   0.7235   0.01559   0.00803   0.0054  0.1121  1.0000  -3.1631   0.0000   0.0000   0.0000   0.2373
   6.500   0.7337   0.01580   0.00825   0.0055  0.1066  1.0000  -3.2806   0.0000   0.0000   0.0000   0.2371
   6.600   0.7430   0.01626   0.00864   0.0057  0.1012  1.0000  -3.3905   0.0000   0.0000   0.0000   0.2369
   6.700   0.7535   0.01641   0.00888   0.0058  0.0959  1.0000  -3.5099   0.0000   0.0000   0.0000   0.2367
   6.800   0.7635   0.01665   0.00910   0.0059  0.0909  1.0000  -3.6308   0.0000   0.0000   0.0000   0.2366
   6.900   0.7729   0.01711   0.00953   0.0061  0.0862  1.0000  -3.7417   0.0000   0.0000   0.0000   0.2363
   7.000   0.7832   0.01734   0.00983   0.0063  0.0817  1.0000  -3.8603   0.0000   0.0000   0.0000   0.2361
   7.100   0.7930   0.01764   0.01013   0.0065  0.0779  1.0000  -3.9801   0.0000   0.0000   0.0000   0.2359
   7.200   0.8016   0.01832   0.01074   0.0067  0.0742  1.0000  -4.0844   0.0000   0.0000   0.0000   0.2356
   7.300   0.8119   0.01860   0.01113   0.0069  0.0711  1.0000  -4.2004   0.0000   0.0000   0.0000   0.2354
   7.400   0.8218   0.01895   0.01151   0.0071  0.0681  1.0000  -4.3175   0.0000   0.0000   0.0000   0.2351
   7.500   0.8313   0.01933   0.01189   0.0073  0.0655  1.0000  -4.4369   0.0000   0.0000   0.0000   0.2349
   7.600   0.8398   0.02012   0.01261   0.0075  0.0630  1.0000  -4.5412   0.0000   0.0000   0.0000   0.2346
   7.700   0.8493   0.02066   0.01324   0.0078  0.0612  1.0000  -4.6485   0.0000   0.0000   0.0000   0.2343
   7.800   0.8591   0.02104   0.01372   0.0080  0.0592  1.0000  -4.7640   0.0000   0.0000   0.0000   0.2340
   7.900   0.8688   0.02141   0.01418   0.0082  0.0570  1.0000  -4.8793   0.0000   0.0000   0.0000   0.2338
   8.000   0.8784   0.02174   0.01453   0.0084  0.0550  1.0000  -5.0052   0.0000   0.0000   0.0000   0.2336
   8.100   0.8875   0.02221   0.01497   0.0085  0.0532  1.0000  -5.1298   0.0000   0.0000   0.0000   0.2335
   8.200   0.8950   0.02347   0.01623   0.0088  0.0513  1.0000  -5.2174   0.0000   0.0000   0.0000   0.2332
   8.300   0.9047   0.02388   0.01676   0.0090  0.0504  1.0000  -5.3311   0.0000   0.0000   0.0000   0.2329
   8.400   0.9141   0.02440   0.01741   0.0093  0.0493  1.0000  -5.4399   0.0000   0.0000   0.0000   0.2326
   8.500   0.9233   0.02500   0.01811   0.0096  0.0482  1.0000  -5.5467   0.0000   0.0000   0.0000   0.2323
   8.600   0.9323   0.02561   0.01883   0.0098  0.0470  1.0000  -5.6528   0.0000   0.0000   0.0000   0.2321
   8.700   0.9412   0.02623   0.01954   0.0100  0.0458  1.0000  -5.7599   0.0000   0.0000   0.0000   0.2318
   8.800   0.9500   0.02674   0.02010   0.0102  0.0446  1.0000  -5.8770   0.0000   0.0000   0.0000   0.2316
   8.900   0.9588   0.02720   0.02055   0.0104  0.0432  1.0000  -6.0054   0.0000   0.0000   0.0000   0.2314
   9.000   0.9652   0.02864   0.02199   0.0105  0.0416  1.0000  -6.0898   0.0000   0.0000   0.0000   0.2313
   9.100   0.9732   0.02920   0.02274   0.0108  0.0404  1.0000  -6.1862   0.0000   0.0000   0.0000   0.2310
   9.200   0.9817   0.02961   0.02332   0.0110  0.0389  1.0000  -6.2899   0.0000   0.0000   0.0000   0.2307
   9.300   0.9900   0.03004   0.02385   0.0112  0.0372  1.0000  -6.3997   0.0000   0.0000   0.0000   0.2305
   9.400   0.9989   0.03008   0.02390   0.0113  0.0353  1.0000  -6.5463   0.0000   0.0000   0.0000   0.2304
   9.500   1.0074   0.03020   0.02390   0.0112  0.0335  1.0000  -6.7106   0.0000   0.0000   0.0000   0.2304
   9.600   1.0123   0.03151   0.02534   0.0114  0.0318  1.0000  -6.7740   0.0000   0.0000   0.0000   0.2301
   9.700   1.0205   0.03168   0.02573   0.0116  0.0300  1.0000  -6.8812   0.0000   0.0000   0.0000   0.2299
   9.800   1.0278   0.03222   0.02639   0.0118  0.0283  1.0000  -6.9660   0.0000   0.0000   0.0000   0.2297
   9.900   1.0356   0.03252   0.02669   0.0119  0.0268  1.0000  -7.0789   0.0000   0.0000   0.0000   0.2295
  10.000   1.0417   0.03326   0.02738   0.0120  0.0254  1.0000  -7.1738   0.0000   0.0000   0.0000   0.2293
  10.100   1.0424   0.03539   0.02973   0.0123  0.0241  1.0000  -7.1198   0.0000   0.0000   0.0000   0.2290
  10.200   1.0465   0.03645   0.03105   0.0126  0.0228  1.0000  -7.1070   0.0000   0.0000   0.0000   0.2286
  10.300   1.0500   0.03764   0.03241   0.0128  0.0216  1.0000  -7.1042   0.0000   0.0000   0.0000   0.2284
  10.400   1.0535   0.03870   0.03360   0.0130  0.0206  1.0000  -7.1270   0.0000   0.0000   0.0000   0.2281
  10.500   1.0572   0.03965   0.03464   0.0131  0.0199  1.0000  -7.1692   0.0000   0.0000   0.0000   0.2279
  10.600   1.0606   0.04059   0.03562   0.0132  0.0193  1.0000  -7.2232   0.0000   0.0000   0.0000   0.2277
  10.700   1.0630   0.04170   0.03678   0.0133  0.0189  1.0000  -7.2671   0.0000   0.0000   0.0000   0.2275
  10.800   1.0628   0.04320   0.03837   0.0134  0.0185  1.0000  -7.2768   0.0000   0.0000   0.0000   0.2274
  10.900   1.0600   0.04505   0.04033   0.0134  0.0183  1.0000  -7.2525   0.0000   0.0000   0.0000   0.2272
  11.000   1.0554   0.04703   0.04245   0.0132  0.0181  1.0000  -7.2105   0.0000   0.0000   0.0000   0.2272
  11.100   1.0493   0.04887   0.04441   0.0132  0.0181  1.0000  -7.1669   0.0000   0.0000   0.0000   0.2271
  11.200   1.0426   0.05068   0.04633   0.0128  0.0180  1.0000  -7.1254   0.0000   0.0000   0.0000   0.2273
  11.300   1.0361   0.05259   0.04834   0.0118  0.0180  1.0000  -7.0847   0.0000   0.0000   0.0000   0.2280
  11.400   1.0297   0.05466   0.05051   0.0103  0.0180  1.0000  -7.0435   0.0000   0.0000   0.0000   0.2292
  11.500   1.0237   0.05692   0.05287   0.0084  0.0180  1.0000  -7.0005   0.0000   0.0000   0.0000   0.2309
  11.600   1.0177   0.05936   0.05540   0.0061  0.0181  1.0000  -6.9552   0.0000   0.0000   0.0000   0.2329
  11.700   1.0119   0.06199   0.05812   0.0036  0.0181  1.0000  -6.9063   0.0000   0.0000   0.0000   0.2352
  11.800   1.0059   0.06481   0.06102   0.0009  0.0182  1.0000  -6.8521   0.0000   0.0000   0.0000   0.2378
  11.900   0.9995   0.06785   0.06415  -0.0020  0.0183  1.0000  -6.7891   0.0000   0.0000   0.0000   0.2405
  12.000   0.9918   0.07135   0.06775  -0.0053  0.0184  1.0000  -6.7035   0.0000   0.0000   0.0000   0.2438
  12.100   0.8058   0.12439   0.12106  -0.0377  0.0404  1.0000  -3.6568   0.0000   0.0000   0.0000   0.2877
  12.200   0.8024   0.12728   0.12394  -0.0389  0.0405  1.0000  -3.5777   0.0000   0.0000   0.0000   0.2894
  12.300   0.7993   0.13020   0.12684  -0.0402  0.0405  1.0000  -3.4965   0.0000   0.0000   0.0000   0.2911
  12.400   0.7963   0.13314   0.12978  -0.0415  0.0405  1.0000  -3.4117   0.0000   0.0000   0.0000   0.2929
  12.500   0.7934   0.13613   0.13276  -0.0428  0.0404  1.0000  -3.3230   0.0000   0.0000   0.0000   0.2948
  12.600   0.7905   0.13915   0.13576  -0.0442  0.0403  1.0000  -3.2315   0.0000   0.0000   0.0000   0.2968
  12.700   0.7878   0.14215   0.13875  -0.0457  0.0402  1.0000  -3.1387   0.0000   0.0000   0.0000   0.2988
  12.800   0.7853   0.14513   0.14169  -0.0472  0.0400  1.0000  -3.0474   0.0000   0.0000   0.0000   0.3009
  12.900   0.7831   0.14801   0.14456  -0.0486  0.0397  1.0000  -2.9578   0.0000   0.0000   0.0000   0.3029
  13.000   0.7814   0.15075   0.14729  -0.0500  0.0395  1.0000  -2.8758   0.0000   0.0000   0.0000   0.3048
  13.100   0.7813   0.15307   0.14960  -0.0507  0.0398  1.0000  -2.8204   0.0000   0.0000   0.0000   0.3057
  13.400   0.7916   0.15440   0.15097  -0.0511  0.0317  1.0000  -3.0254   0.0000   0.0000   0.0000   0.3048
  13.500   0.7916   0.15666   0.15322  -0.0517  0.0319  1.0000  -2.9701   0.0000   0.0000   0.0000   0.3054
  13.600   0.7722   0.16754   0.16403  -0.0577  0.0456  1.0000  -2.3072   0.0000   0.0000   0.0000   0.3156
  13.700   0.7748   0.16891   0.16540  -0.0581  0.0444  1.0000  -2.3025   0.0000   0.0000   0.0000   0.3157
  13.800   0.7793   0.16993   0.16643  -0.0578  0.0433  1.0000  -2.3295   0.0000   0.0000   0.0000   0.3147
  13.900   0.7884   0.17037   0.16693  -0.0560  0.0423  1.0000  -2.4270   0.0000   0.0000   0.0000   0.3114
  14.000   0.7939   0.17248   0.16906  -0.0538  0.0414  1.0000  -2.5091   0.0000   0.0000   0.0000   0.3079
  14.100   0.7940   0.17495   0.17150  -0.0547  0.0413  1.0000  -2.4618   0.0000   0.0000   0.0000   0.3090
  14.200   0.7948   0.17711   0.17365  -0.0557  0.0413  1.0000  -2.4205   0.0000   0.0000   0.0000   0.3101
  14.300   0.7957   0.17921   0.17575  -0.0567  0.0412  1.0000  -2.3801   0.0000   0.0000   0.0000   0.3113
  14.400   0.7962   0.18131   0.17785  -0.0578  0.0412  1.0000  -2.3369   0.0000   0.0000   0.0000   0.3126
  14.500   0.7964   0.18340   0.17993  -0.0591  0.0411  1.0000  -2.2880   0.0000   0.0000   0.0000   0.3141
  14.600   0.7964   0.18543   0.18195  -0.0605  0.0410  1.0000  -2.2368   0.0000   0.0000   0.0000   0.3158
  14.700   0.7961   0.18740   0.18390  -0.0620  0.0409  1.0000  -2.1793   0.0000   0.0000   0.0000   0.3177
  14.800   0.7944   0.18926   0.18575  -0.0640  0.0406  1.0000  -2.1044   0.0000   0.0000   0.0000   0.3204
  14.900   0.7917   0.19113   0.18760  -0.0665  0.0400  1.0000  -2.0114   0.0000   0.0000   0.0000   0.3238
  15.000   0.7918   0.19307   0.18953  -0.0682  0.0390  1.0000  -1.9511   0.0000   0.0000   0.0000   0.3259


