xflr5 v6.61

 Calculated polar for: S8025 (8%)

 1 1 Reynolds number fixed          Mach number fixed         

 xtrf =   1.000 (top)        1.000 (bottom)
 Mach =   0.000     Re =     0.375 e 6     Ncrit =   9.000

  alpha     CL        CD       CDp       Cm    Top Xtr Bot Xtr   Cpmin    Chinge    XCp    
 ------- -------- --------- --------- -------- ------- ------- -------- --------- ---------
 -10.000  -0.6978   0.10789   0.10536   0.0307  1.0000  0.0221  -2.4743   0.0000   0.0000   0.0000   0.2883
  -9.900  -0.6969   0.10637   0.10385   0.0301  1.0000  0.0223  -2.4602   0.0000   0.0000   0.0000   0.2876
  -9.800  -0.6960   0.10485   0.10234   0.0295  1.0000  0.0224  -2.4469   0.0000   0.0000   0.0000   0.2869
  -9.700  -0.6952   0.10329   0.10079   0.0289  1.0000  0.0226  -2.4365   0.0000   0.0000   0.0000   0.2861
  -9.600  -0.6946   0.10167   0.09917   0.0282  1.0000  0.0227  -2.4312   0.0000   0.0000   0.0000   0.2852
  -9.500  -0.6943   0.09997   0.09748   0.0274  1.0000  0.0229  -2.4307   0.0000   0.0000   0.0000   0.2841
  -9.400  -0.6943   0.09822   0.09574   0.0265  1.0000  0.0231  -2.4345   0.0000   0.0000   0.0000   0.2830
  -9.300  -0.6945   0.09640   0.09392   0.0256  1.0000  0.0232  -2.4425   0.0000   0.0000   0.0000   0.2816
  -9.200  -0.6949   0.09450   0.09204   0.0245  1.0000  0.0234  -2.4545   0.0000   0.0000   0.0000   0.2802
  -9.100  -0.6956   0.09252   0.09007   0.0234  1.0000  0.0236  -2.4705   0.0000   0.0000   0.0000   0.2785
  -9.000  -0.6964   0.09047   0.08803   0.0221  1.0000  0.0238  -2.4906   0.0000   0.0000   0.0000   0.2767
  -8.900  -0.6977   0.08833   0.08590   0.0207  1.0000  0.0239  -2.5155   0.0000   0.0000   0.0000   0.2748
  -8.800  -0.6993   0.08608   0.08366   0.0192  1.0000  0.0241  -2.5456   0.0000   0.0000   0.0000   0.2725
  -7.200  -0.7243   0.03161   0.02706  -0.0105  1.0000  0.0138  -4.3260   0.0000   0.0000   0.0000   0.2306
  -7.100  -0.7207   0.02888   0.02409  -0.0102  1.0000  0.0128  -4.4052   0.0000   0.0000   0.0000   0.2309
  -6.900  -0.7088   0.02311   0.01742  -0.0086  1.0000  0.0098  -4.8424   0.0000   0.0000   0.0000   0.2330
  -6.800  -0.6989   0.02253   0.01668  -0.0082  1.0000  0.0096  -4.7897   0.0000   0.0000   0.0000   0.2333
  -6.700  -0.6889   0.02207   0.01614  -0.0080  1.0000  0.0094  -4.7055   0.0000   0.0000   0.0000   0.2336
  -6.600  -0.6789   0.02164   0.01564  -0.0077  1.0000  0.0093  -4.6148   0.0000   0.0000   0.0000   0.2339
  -6.500  -0.6689   0.02120   0.01514  -0.0075  1.0000  0.0092  -4.5227   0.0000   0.0000   0.0000   0.2341
  -6.400  -0.6590   0.02074   0.01463  -0.0073  1.0000  0.0091  -4.4317   0.0000   0.0000   0.0000   0.2344
  -6.200  -0.6404   0.01907   0.01277  -0.0066  1.0000  0.0089  -4.3265   0.0000   0.0000   0.0000   0.2352
  -6.100  -0.6312   0.01819   0.01180  -0.0063  1.0000  0.0089  -4.2827   0.0000   0.0000   0.0000   0.2356
  -6.000  -0.6218   0.01744   0.01098  -0.0060  1.0000  0.0088  -4.2275   0.0000   0.0000   0.0000   0.2361
  -5.900  -0.6123   0.01678   0.01026  -0.0056  1.0000  0.0088  -4.1655   0.0000   0.0000   0.0000   0.2365
  -5.800  -0.6027   0.01619   0.00961  -0.0053  1.0000  0.0088  -4.0989   0.0000   0.0000   0.0000   0.2370
  -5.700  -0.5931   0.01564   0.00901  -0.0050  1.0000  0.0088  -4.0286   0.0000   0.0000   0.0000   0.2374
  -5.600  -0.5833   0.01515   0.00847  -0.0047  1.0000  0.0089  -3.9549   0.0000   0.0000   0.0000   0.2378
  -5.500  -0.5735   0.01469   0.00798  -0.0045  1.0000  0.0089  -3.8783   0.0000   0.0000   0.0000   0.2382
  -5.400  -0.5636   0.01428   0.00752  -0.0042  1.0000  0.0090  -3.7987   0.0000   0.0000   0.0000   0.2386
  -5.300  -0.5540   0.01377   0.00697  -0.0039  1.0000  0.0091  -3.7347   0.0000   0.0000   0.0000   0.2391
  -5.200  -0.5446   0.01317   0.00630  -0.0036  1.0000  0.0094  -3.6880   0.0000   0.0000   0.0000   0.2396
  -5.100  -0.5348   0.01268   0.00575  -0.0033  1.0000  0.0098  -3.6319   0.0000   0.0000   0.0000   0.2401
  -5.000  -0.5246   0.01233   0.00531  -0.0030  1.0000  0.0102  -3.5479   0.0000   0.0000   0.0000   0.2405
  -4.900  -0.5143   0.01202   0.00496  -0.0028  1.0000  0.0111  -3.4713   0.0000   0.0000   0.0000   0.2409
  -4.800  -0.5038   0.01176   0.00467  -0.0026  1.0000  0.0122  -3.3917   0.0000   0.0000   0.0000   0.2413
  -4.700  -0.4933   0.01152   0.00438  -0.0024  1.0000  0.0140  -3.3238   0.0000   0.0000   0.0000   0.2417
  -4.600  -0.4843   0.01072   0.00380  -0.0020  1.0000  0.0436  -3.3508   0.0000   0.0000   0.0000   0.2424
  -4.500  -0.4743   0.01040   0.00362  -0.0019  1.0000  0.0659  -3.2571   0.0000   0.0000   0.0000   0.2427
  -4.400  -0.4639   0.01021   0.00349  -0.0017  1.0000  0.0782  -3.1385   0.0000   0.0000   0.0000   0.2429
  -4.300  -0.4534   0.01004   0.00337  -0.0016  1.0000  0.0891  -3.0151   0.0000   0.0000   0.0000   0.2432
  -4.200  -0.4430   0.00988   0.00326  -0.0015  1.0000  0.1019  -2.8903   0.0000   0.0000   0.0000   0.2434
  -4.100  -0.4327   0.00969   0.00316  -0.0014  1.0000  0.1175  -2.7660   0.0000   0.0000   0.0000   0.2436
  -4.000  -0.4225   0.00948   0.00306  -0.0013  1.0000  0.1367  -2.6429   0.0000   0.0000   0.0000   0.2439
  -3.900  -0.4122   0.00927   0.00297  -0.0012  1.0000  0.1579  -2.5209   0.0000   0.0000   0.0000   0.2441
  -3.800  -0.4020   0.00907   0.00289  -0.0011  1.0000  0.1801  -2.4003   0.0000   0.0000   0.0000   0.2443
  -3.700  -0.3917   0.00889   0.00280  -0.0009  1.0000  0.2025  -2.2813   0.0000   0.0000   0.0000   0.2446
  -3.600  -0.3815   0.00871   0.00272  -0.0008  1.0000  0.2241  -2.1642   0.0000   0.0000   0.0000   0.2449
  -3.500  -0.3711   0.00854   0.00263  -0.0007  1.0000  0.2439  -2.0490   0.0000   0.0000   0.0000   0.2453
  -3.400  -0.3607   0.00839   0.00255  -0.0006  1.0000  0.2613  -1.9360   0.0000   0.0000   0.0000   0.2456
  -3.300  -0.3503   0.00825   0.00244  -0.0004  1.0000  0.2789  -1.8289   0.0000   0.0000   0.0000   0.2460
  -3.100  -0.3294   0.00798   0.00230  -0.0001  1.0000  0.3152  -1.6234   0.0000   0.0000   0.0000   0.2469
  -3.000  -0.3190   0.00784   0.00223   0.0000  1.0000  0.3338  -1.5404   0.0000   0.0000   0.0000   0.2474
  -2.900  -0.3087   0.00771   0.00217   0.0002  1.0000  0.3536  -1.4587   0.0000   0.0000   0.0000   0.2480
  -2.800  -0.2983   0.00758   0.00212   0.0003  1.0000  0.3746  -1.3784   0.0000   0.0000   0.0000   0.2486
  -2.700  -0.2880   0.00745   0.00206   0.0005  1.0000  0.3963  -1.2995   0.0000   0.0000   0.0000   0.2492
  -2.600  -0.2777   0.00732   0.00202   0.0007  1.0000  0.4186  -1.2222   0.0000   0.0000   0.0000   0.2500
  -2.500  -0.2675   0.00719   0.00197   0.0009  1.0000  0.4404  -1.1464   0.0000   0.0000   0.0000   0.2508
  -2.400  -0.2572   0.00707   0.00193   0.0011  1.0000  0.4614  -1.0718   0.0000   0.0000   0.0000   0.2517
  -2.300  -0.2470   0.00696   0.00190   0.0013  1.0000  0.4828  -0.9987   0.0000   0.0000   0.0000   0.2528
  -2.200  -0.2369   0.00684   0.00187   0.0015  1.0000  0.5067  -0.9272   0.0000   0.0000   0.0000   0.2540
  -2.100  -0.2268   0.00672   0.00185   0.0017  1.0000  0.5315  -0.8573   0.0000   0.0000   0.0000   0.2554
  -2.000  -0.2167   0.00661   0.00183   0.0020  1.0000  0.5558  -0.8122   0.0000   0.0000   0.0000   0.2569
  -1.900  -0.2066   0.00651   0.00181   0.0023  1.0000  0.5797  -0.7847   0.0000   0.0000   0.0000   0.2587
  -1.800  -0.1966   0.00641   0.00180   0.0025  1.0000  0.6024  -0.7585   0.0000   0.0000   0.0000   0.2607
  -1.700  -0.1866   0.00631   0.00175   0.0028  1.0000  0.6232  -0.7326   0.0000   0.0000   0.0000   0.2630
  -1.600  -0.1765   0.00622   0.00174   0.0031  1.0000  0.6420  -0.7068   0.0000   0.0000   0.0000   0.2655
  -1.500  -0.1664   0.00615   0.00173   0.0034  1.0000  0.6600  -0.6811   0.0000   0.0000   0.0000   0.2682
  -1.400  -0.1563   0.00608   0.00173   0.0037  1.0000  0.6779  -0.6556   0.0000   0.0000   0.0000   0.2713
  -1.300  -0.1454   0.00600   0.00173   0.0038  0.9987  0.6966  -0.6292   0.0000   0.0000   0.0000   0.2738
  -1.200  -0.1282   0.00592   0.00174   0.0025  0.9887  0.7182  -0.5953   0.0000   0.0000   0.0000   0.2676
  -1.100  -0.1114   0.00585   0.00174   0.0014  0.9756  0.7398  -0.5622   0.0000   0.0000   0.0000   0.2608
  -1.000  -0.0944   0.00578   0.00175   0.0003  0.9600  0.7616  -0.5325   0.0000   0.0000   0.0000   0.2515
  -0.900  -0.0776   0.00572   0.00175  -0.0006  0.9410  0.7823  -0.5037   0.0000   0.0000   0.0000   0.2397
  -0.800  -0.0627   0.00568   0.00174  -0.0011  0.9182  0.8024  -0.4770   0.0000   0.0000   0.0000   0.2298
  -0.700  -0.0507   0.00566   0.00173  -0.0009  0.8935  0.8215  -0.4534   0.0000   0.0000   0.0000   0.2289
  -0.600  -0.0410   0.00565   0.00173  -0.0003  0.8681  0.8403  -0.4325   0.0000   0.0000   0.0000   0.2413
  -0.200  -0.0031   0.00578   0.00169   0.0026  0.7778  0.9137  -0.3962   0.0000   0.0000   0.0000   1.0885
  -0.100   0.0092   0.00583   0.00168   0.0027  0.7576  0.9299  -0.4117   0.0000   0.0000   0.0000  -0.0424
   0.000   0.0231   0.00589   0.00167   0.0023  0.7382  0.9440  -0.4285   0.0000   0.0000   0.0000   0.1487
   0.100   0.0380   0.00596   0.00166   0.0017  0.7200  0.9560  -0.4460   0.0000   0.0000   0.0000   0.2039
   0.200   0.0534   0.00603   0.00165   0.0009  0.7027  0.9664  -0.4651   0.0000   0.0000   0.0000   0.2311
   0.300   0.0696   0.00609   0.00164  -0.0001  0.6852  0.9762  -0.4854   0.0000   0.0000   0.0000   0.2490
   0.400   0.0862   0.00616   0.00162  -0.0011  0.6678  0.9853  -0.5062   0.0000   0.0000   0.0000   0.2614
   0.500   0.1030   0.00623   0.00161  -0.0023  0.6500  0.9933  -0.5273   0.0000   0.0000   0.0000   0.2706
   0.600   0.1207   0.00630   0.00158  -0.0037  0.6309  1.0000  -0.5492   0.0000   0.0000   0.0000   0.2788
   0.700   0.1309   0.00635   0.00157  -0.0035  0.6149  1.0000  -0.5650   0.0000   0.0000   0.0000   0.2749
   0.800   0.1410   0.00643   0.00156  -0.0033  0.5994  1.0000  -0.5808   0.0000   0.0000   0.0000   0.2713
   0.900   0.1512   0.00649   0.00156  -0.0031  0.5834  1.0000  -0.5968   0.0000   0.0000   0.0000   0.2683
   1.000   0.1614   0.00656   0.00155  -0.0029  0.5685  1.0000  -0.6132   0.0000   0.0000   0.0000   0.2657
   1.100   0.1716   0.00663   0.00155  -0.0026  0.5531  1.0000  -0.6310   0.0000   0.0000   0.0000   0.2634
   1.200   0.1819   0.00670   0.00156  -0.0025  0.5391  1.0000  -0.6490   0.0000   0.0000   0.0000   0.2614
   1.300   0.1921   0.00678   0.00157  -0.0022  0.5249  1.0000  -0.6669   0.0000   0.0000   0.0000   0.2596
   1.400   0.2025   0.00683   0.00158  -0.0021  0.5120  1.0000  -0.6870   0.0000   0.0000   0.0000   0.2581
   1.500   0.2127   0.00691   0.00159  -0.0019  0.4991  1.0000  -0.7094   0.0000   0.0000   0.0000   0.2566
   1.600   0.2232   0.00697   0.00160  -0.0017  0.4871  1.0000  -0.7322   0.0000   0.0000   0.0000   0.2554
   1.700   0.2335   0.00705   0.00162  -0.0015  0.4743  1.0000  -0.7551   0.0000   0.0000   0.0000   0.2543
   1.800   0.2439   0.00712   0.00164  -0.0014  0.4625  1.0000  -0.7781   0.0000   0.0000   0.0000   0.2533
   1.900   0.2543   0.00720   0.00165  -0.0012  0.4497  1.0000  -0.8020   0.0000   0.0000   0.0000   0.2523
   2.000   0.2648   0.00727   0.00168  -0.0010  0.4384  1.0000  -0.8282   0.0000   0.0000   0.0000   0.2515
   2.100   0.2752   0.00734   0.00170  -0.0009  0.4265  1.0000  -0.8546   0.0000   0.0000   0.0000   0.2507
   2.200   0.2857   0.00743   0.00173  -0.0007  0.4160  1.0000  -0.8811   0.0000   0.0000   0.0000   0.2500
   2.300   0.2963   0.00749   0.00176  -0.0006  0.4055  1.0000  -0.9080   0.0000   0.0000   0.0000   0.2494
   2.400   0.3067   0.00759   0.00180  -0.0004  0.3948  1.0000  -0.9348   0.0000   0.0000   0.0000   0.2488
   2.500   0.3173   0.00765   0.00183  -0.0003  0.3849  1.0000  -0.9621   0.0000   0.0000   0.0000   0.2483
   2.600   0.3278   0.00773   0.00187  -0.0001  0.3740  1.0000  -0.9894   0.0000   0.0000   0.0000   0.2478
   2.700   0.3384   0.00782   0.00191  -0.0000  0.3641  1.0000  -1.0169   0.0000   0.0000   0.0000   0.2473
   2.800   0.3490   0.00789   0.00195   0.0001  0.3536  1.0000  -1.0447   0.0000   0.0000   0.0000   0.2469
   2.900   0.3594   0.00800   0.00200   0.0003  0.3432  1.0000  -1.0724   0.0000   0.0000   0.0000   0.2465
   3.000   0.3702   0.00806   0.00209   0.0004  0.3337  1.0000  -1.1007   0.0000   0.0000   0.0000   0.2461
   3.100   0.3807   0.00816   0.00214   0.0005  0.3233  1.0000  -1.1299   0.0000   0.0000   0.0000   0.2457
   3.200   0.3913   0.00825   0.00219   0.0006  0.3140  1.0000  -1.1621   0.0000   0.0000   0.0000   0.2454
   3.300   0.4020   0.00833   0.00224   0.0007  0.3043  1.0000  -1.1946   0.0000   0.0000   0.0000   0.2451
   3.400   0.4124   0.00845   0.00230   0.0009  0.2950  1.0000  -1.2338   0.0000   0.0000   0.0000   0.2448
   3.500   0.4232   0.00851   0.00236   0.0010  0.2867  1.0000  -1.2779   0.0000   0.0000   0.0000   0.2446
   3.600   0.4338   0.00861   0.00242   0.0011  0.2777  1.0000  -1.3220   0.0000   0.0000   0.0000   0.2443
   3.700   0.4444   0.00871   0.00249   0.0012  0.2694  1.0000  -1.3665   0.0000   0.0000   0.0000   0.2440
   3.800   0.4551   0.00879   0.00255   0.0013  0.2608  1.0000  -1.4117   0.0000   0.0000   0.0000   0.2438
   3.900   0.4657   0.00891   0.00262   0.0014  0.2520  1.0000  -1.4569   0.0000   0.0000   0.0000   0.2436
   4.000   0.4764   0.00899   0.00270   0.0015  0.2446  1.0000  -1.5030   0.0000   0.0000   0.0000   0.2434
   4.100   0.4871   0.00909   0.00277   0.0016  0.2367  1.0000  -1.5573   0.0000   0.0000   0.0000   0.2432
   4.200   0.4976   0.00923   0.00286   0.0017  0.2287  1.0000  -1.6115   0.0000   0.0000   0.0000   0.2429
   4.300   0.5084   0.00930   0.00294   0.0018  0.2222  1.0000  -1.6672   0.0000   0.0000   0.0000   0.2428
   4.400   0.5190   0.00940   0.00302   0.0019  0.2146  1.0000  -1.7230   0.0000   0.0000   0.0000   0.2426
   4.500   0.5295   0.00954   0.00315   0.0020  0.2070  1.0000  -1.7795   0.0000   0.0000   0.0000   0.2424
   4.600   0.5403   0.00962   0.00324   0.0021  0.2003  1.0000  -1.8369   0.0000   0.0000   0.0000   0.2422
   4.700   0.5509   0.00975   0.00333   0.0022  0.1926  1.0000  -1.8940   0.0000   0.0000   0.0000   0.2420
   4.800   0.5614   0.00988   0.00344   0.0023  0.1854  1.0000  -1.9514   0.0000   0.0000   0.0000   0.2419
   4.900   0.5722   0.00998   0.00354   0.0024  0.1784  1.0000  -2.0098   0.0000   0.0000   0.0000   0.2417
   5.000   0.5826   0.01014   0.00364   0.0025  0.1708  1.0000  -2.0679   0.0000   0.0000   0.0000   0.2415
   5.100   0.5933   0.01024   0.00375   0.0026  0.1643  1.0000  -2.1271   0.0000   0.0000   0.0000   0.2414
   5.200   0.6039   0.01036   0.00385   0.0027  0.1571  1.0000  -2.1868   0.0000   0.0000   0.0000   0.2412
   5.300   0.6143   0.01053   0.00398   0.0028  0.1499  1.0000  -2.2460   0.0000   0.0000   0.0000   0.2410
   5.400   0.6251   0.01062   0.00409   0.0029  0.1438  1.0000  -2.3069   0.0000   0.0000   0.0000   0.2409
   5.500   0.6355   0.01078   0.00420   0.0030  0.1369  1.0000  -2.3674   0.0000   0.0000   0.0000   0.2408
   5.600   0.6461   0.01092   0.00434   0.0031  0.1309  1.0000  -2.4279   0.0000   0.0000   0.0000   0.2406
   5.700   0.6567   0.01104   0.00446   0.0032  0.1249  1.0000  -2.4895   0.0000   0.0000   0.0000   0.2404
   5.800   0.6669   0.01125   0.00462   0.0033  0.1182  1.0000  -2.5671   0.0000   0.0000   0.0000   0.2403
   5.900   0.6776   0.01137   0.00476   0.0034  0.1130  1.0000  -2.6817   0.0000   0.0000   0.0000   0.2401
   6.000   0.6881   0.01152   0.00489   0.0035  0.1071  1.0000  -2.7973   0.0000   0.0000   0.0000   0.2400
   6.100   0.6983   0.01175   0.00511   0.0036  0.1011  1.0000  -2.9175   0.0000   0.0000   0.0000   0.2398
   6.200   0.7090   0.01186   0.00525   0.0037  0.0964  1.0000  -3.0394   0.0000   0.0000   0.0000   0.2397
   6.300   0.7193   0.01205   0.00542   0.0038  0.0912  1.0000  -3.1596   0.0000   0.0000   0.0000   0.2395
   6.400   0.7296   0.01228   0.00563   0.0039  0.0864  1.0000  -3.2785   0.0000   0.0000   0.0000   0.2393
   6.500   0.7402   0.01241   0.00579   0.0040  0.0822  1.0000  -3.4026   0.0000   0.0000   0.0000   0.2392
   6.600   0.7504   0.01262   0.00597   0.0041  0.0776  1.0000  -3.5257   0.0000   0.0000   0.0000   0.2390
   6.700   0.7605   0.01288   0.00623   0.0043  0.0732  1.0000  -3.6465   0.0000   0.0000   0.0000   0.2388
   6.800   0.7710   0.01303   0.00641   0.0044  0.0694  1.0000  -3.7734   0.0000   0.0000   0.0000   0.2386
   6.900   0.7811   0.01328   0.00664   0.0045  0.0652  1.0000  -3.8985   0.0000   0.0000   0.0000   0.2385
   7.000   0.7909   0.01362   0.00697   0.0047  0.0613  1.0000  -4.0181   0.0000   0.0000   0.0000   0.2382
   7.100   0.8013   0.01380   0.00719   0.0048  0.0581  1.0000  -4.1464   0.0000   0.0000   0.0000   0.2381
   7.200   0.8114   0.01405   0.00744   0.0049  0.0550  1.0000  -4.2746   0.0000   0.0000   0.0000   0.2379
   7.300   0.8203   0.01459   0.00795   0.0051  0.0512  1.0000  -4.3869   0.0000   0.0000   0.0000   0.2376
   7.400   0.8309   0.01473   0.00814   0.0053  0.0494  1.0000  -4.5209   0.0000   0.0000   0.0000   0.2374
   7.500   0.8412   0.01493   0.00837   0.0054  0.0472  1.0000  -4.6541   0.0000   0.0000   0.0000   0.2372
   7.600   0.8513   0.01515   0.00861   0.0055  0.0451  1.0000  -4.7888   0.0000   0.0000   0.0000   0.2371
   7.700   0.8608   0.01552   0.00900   0.0057  0.0431  1.0000  -4.9137   0.0000   0.0000   0.0000   0.2368
   7.800   0.8692   0.01618   0.00967   0.0059  0.0412  1.0000  -5.0190   0.0000   0.0000   0.0000   0.2365
   7.900   0.8795   0.01638   0.00993   0.0061  0.0403  1.0000  -5.1535   0.0000   0.0000   0.0000   0.2363
   8.000   0.8895   0.01664   0.01025   0.0063  0.0392  1.0000  -5.2860   0.0000   0.0000   0.0000   0.2360
   8.100   0.8994   0.01694   0.01058   0.0064  0.0381  1.0000  -5.4183   0.0000   0.0000   0.0000   0.2358
   8.200   0.9091   0.01724   0.01092   0.0066  0.0370  1.0000  -5.5518   0.0000   0.0000   0.0000   0.2356
   8.300   0.9188   0.01755   0.01126   0.0068  0.0360  1.0000  -5.6869   0.0000   0.0000   0.0000   0.2354
   8.400   0.9284   0.01786   0.01160   0.0069  0.0350  1.0000  -5.8247   0.0000   0.0000   0.0000   0.2352
   8.500   0.9374   0.01830   0.01204   0.0071  0.0338  1.0000  -5.9576   0.0000   0.0000   0.0000   0.2350
   8.600   0.9448   0.01916   0.01293   0.0074  0.0322  1.0000  -6.0615   0.0000   0.0000   0.0000   0.2346
   8.700   0.9557   0.01911   0.01294   0.0074  0.0313  1.0000  -6.2258   0.0000   0.0000   0.0000   0.2345
   8.800   0.9663   0.01916   0.01304   0.0075  0.0300  1.0000  -6.3871   0.0000   0.0000   0.0000   0.2345
   8.900   0.9765   0.01926   0.01317   0.0075  0.0287  1.0000  -6.5482   0.0000   0.0000   0.0000   0.2344
   9.000   0.9866   0.01941   0.01334   0.0076  0.0275  1.0000  -6.7086   0.0000   0.0000   0.0000   0.2343
   9.100   0.9959   0.01971   0.01365   0.0077  0.0264  1.0000  -6.8575   0.0000   0.0000   0.0000   0.2341
   9.200   1.0035   0.02040   0.01436   0.0079  0.0252  1.0000  -6.9741   0.0000   0.0000   0.0000   0.2338
   9.300   1.0113   0.02108   0.01511   0.0082  0.0243  1.0000  -7.0850   0.0000   0.0000   0.0000   0.2335
   9.500   1.0313   0.02143   0.01563   0.0084  0.0224  1.0000  -7.3839   0.0000   0.0000   0.0000   0.2332
   9.600   1.0411   0.02161   0.01585   0.0085  0.0211  1.0000  -7.5320   0.0000   0.0000   0.0000   0.2331
   9.700   1.0508   0.02178   0.01603   0.0085  0.0197  1.0000  -7.6848   0.0000   0.0000   0.0000   0.2330
   9.800   1.0554   0.02301   0.01730   0.0088  0.0176  1.0000  -7.7250   0.0000   0.0000   0.0000   0.2326
   9.900   1.0667   0.02295   0.01734   0.0089  0.0157  1.0000  -7.8361   0.0000   0.0000   0.0000   0.2325
  10.000   1.0762   0.02317   0.01757   0.0089  0.0138  1.0000  -7.9400   0.0000   0.0000   0.0000   0.2323
  10.100   1.0777   0.02494   0.01943   0.0094  0.0121  1.0000  -7.8904   0.0000   0.0000   0.0000   0.2318
  10.200   1.0863   0.02537   0.01993   0.0096  0.0116  1.0000  -7.9814   0.0000   0.0000   0.0000   0.2316
  10.300   1.0945   0.02584   0.02050   0.0098  0.0111  1.0000  -8.0766   0.0000   0.0000   0.0000   0.2313
  10.400   1.1021   0.02639   0.02112   0.0100  0.0105  1.0000  -8.1745   0.0000   0.0000   0.0000   0.2311
  10.500   1.1098   0.02691   0.02171   0.0102  0.0100  1.0000  -8.2849   0.0000   0.0000   0.0000   0.2308
  10.600   1.1175   0.02737   0.02223   0.0103  0.0096  1.0000  -8.4107   0.0000   0.0000   0.0000   0.2306
  10.700   1.1254   0.02777   0.02268   0.0104  0.0092  1.0000  -8.5510   0.0000   0.0000   0.0000   0.2305
  10.800   1.1332   0.02818   0.02312   0.0105  0.0088  1.0000  -8.6990   0.0000   0.0000   0.0000   0.2303
  10.900   1.1402   0.02870   0.02368   0.0106  0.0085  1.0000  -8.8381   0.0000   0.0000   0.0000   0.2301
  11.000   1.1451   0.02952   0.02456   0.0108  0.0081  1.0000  -8.9400   0.0000   0.0000   0.0000   0.2299
  11.100   1.1469   0.03082   0.02596   0.0110  0.0078  1.0000  -8.9801   0.0000   0.0000   0.0000   0.2296
  11.200   1.1452   0.03260   0.02789   0.0113  0.0076  1.0000  -8.9715   0.0000   0.0000   0.0000   0.2292
  11.300   1.1460   0.03394   0.02934   0.0115  0.0074  1.0000  -9.0272   0.0000   0.0000   0.0000   0.2289
  11.400   1.1512   0.03457   0.03006   0.0116  0.0073  1.0000  -9.1667   0.0000   0.0000   0.0000   0.2287
  11.500   1.1550   0.03538   0.03095   0.0117  0.0072  1.0000  -9.2837   0.0000   0.0000   0.0000   0.2285
  11.600   1.1569   0.03640   0.03208   0.0118  0.0072  1.0000  -9.3739   0.0000   0.0000   0.0000   0.2283
  11.700   1.1576   0.03749   0.03327   0.0119  0.0071  1.0000  -9.4467   0.0000   0.0000   0.0000   0.2281
  11.800   1.1560   0.03867   0.03454   0.0120  0.0071  1.0000  -9.4919   0.0000   0.0000   0.0000   0.2279
  11.900   1.1531   0.04001   0.03597   0.0118  0.0070  1.0000  -9.5201   0.0000   0.0000   0.0000   0.2279
  12.000   1.1495   0.04161   0.03766   0.0110  0.0070  1.0000  -9.5325   0.0000   0.0000   0.0000   0.2284
  12.100   1.1455   0.04351   0.03966   0.0095  0.0070  1.0000  -9.5316   0.0000   0.0000   0.0000   0.2295
  12.200   1.1413   0.04573   0.04196   0.0076  0.0070  1.0000  -9.5188   0.0000   0.0000   0.0000   0.2310
  12.300   1.1369   0.04822   0.04454   0.0053  0.0070  1.0000  -9.4953   0.0000   0.0000   0.0000   0.2328
  12.400   1.1320   0.05093   0.04734   0.0028  0.0070  1.0000  -9.4602   0.0000   0.0000   0.0000   0.2348
  12.500   1.1265   0.05382   0.05032   0.0002  0.0070  1.0000  -9.4133   0.0000   0.0000   0.0000   0.2369
  12.600   1.1205   0.05686   0.05343  -0.0023  0.0070  1.0000  -9.3557   0.0000   0.0000   0.0000   0.2390
  12.700   1.1139   0.06002   0.05666  -0.0048  0.0070  1.0000  -9.2874   0.0000   0.0000   0.0000   0.2411
  12.800   1.1066   0.06325   0.05997  -0.0073  0.0070  1.0000  -9.2090   0.0000   0.0000   0.0000   0.2433
  12.900   1.0988   0.06654   0.06332  -0.0097  0.0071  1.0000  -9.1217   0.0000   0.0000   0.0000   0.2453
  13.000   1.0906   0.06990   0.06674  -0.0120  0.0071  1.0000  -9.0262   0.0000   0.0000   0.0000   0.2474
  13.100   1.0821   0.07333   0.07022  -0.0143  0.0071  1.0000  -8.9231   0.0000   0.0000   0.0000   0.2495
  13.200   1.0733   0.07681   0.07375  -0.0166  0.0072  1.0000  -8.8132   0.0000   0.0000   0.0000   0.2516
  13.300   1.0643   0.08031   0.07728  -0.0188  0.0072  1.0000  -8.6980   0.0000   0.0000   0.0000   0.2537
  13.400   1.0546   0.08386   0.08087  -0.0209  0.0072  1.0000  -8.5729   0.0000   0.0000   0.0000   0.2558
  13.500   1.0441   0.08761   0.08467  -0.0231  0.0073  1.0000  -8.4277   0.0000   0.0000   0.0000   0.2581
  13.600   1.0327   0.09159   0.08869  -0.0254  0.0073  1.0000  -8.2602   0.0000   0.0000   0.0000   0.2605
  13.700   1.0197   0.09590   0.09305  -0.0279  0.0074  1.0000  -8.0576   0.0000   0.0000   0.0000   0.2632
  14.100   0.8401   0.15011   0.14765  -0.0546  0.0120  1.0000  -4.2536   0.0000   0.0000   0.0000   0.3032
  14.300   0.8008   0.17044   0.16789  -0.0614  0.0150  1.0000  -2.7422   0.0000   0.0000   0.0000   0.3161
  14.400   0.7999   0.17315   0.17060  -0.0623  0.0157  1.0000  -2.6457   0.0000   0.0000   0.0000   0.3174
  14.500   0.8004   0.17527   0.17271  -0.0631  0.0163  1.0000  -2.5993   0.0000   0.0000   0.0000   0.3182
  14.600   0.8018   0.17692   0.17436  -0.0636  0.0168  1.0000  -2.5920   0.0000   0.0000   0.0000   0.3186
  14.700   0.7981   0.18239   0.17983  -0.0638  0.0241  1.0000  -2.2970   0.0000   0.0000   0.0000   0.3194
  14.800   0.7957   0.18582   0.18324  -0.0668  0.0229  1.0000  -2.1282   0.0000   0.0000   0.0000   0.3236
  14.900   0.7968   0.18792   0.18533  -0.0679  0.0225  1.0000  -2.0895   0.0000   0.0000   0.0000   0.3248
  15.000   0.7983   0.18988   0.18729  -0.0688  0.0221  1.0000  -2.0692   0.0000   0.0000   0.0000   0.3257


