xflr5 v6.61

 Calculated polar for: S8025 (8%)

 1 1 Reynolds number fixed          Mach number fixed         

 xtrf =   1.000 (top)        1.000 (bottom)
 Mach =   0.000     Re =     0.125 e 6     Ncrit =   9.000

  alpha     CL        CD       CDp       Cm    Top Xtr Bot Xtr   Cpmin    Chinge    XCp    
 ------- -------- --------- --------- -------- ------- ------- -------- --------- ---------
 -10.000  -0.6722   0.12078   0.11644   0.0338  1.0000  0.0688  -1.8297   0.0000   0.0000   0.0000   0.2953
  -9.900  -0.6817   0.11876   0.11447   0.0291  1.0000  0.0703  -1.9474   0.0000   0.0000   0.0000   0.2878
  -9.800  -0.6886   0.11672   0.11247   0.0254  1.0000  0.0707  -2.0364   0.0000   0.0000   0.0000   0.2819
  -9.700  -0.6935   0.11463   0.11040   0.0225  1.0000  0.0709  -2.1024   0.0000   0.0000   0.0000   0.2775
  -9.600  -0.6982   0.11240   0.10819   0.0196  1.0000  0.0710  -2.1647   0.0000   0.0000   0.0000   0.2732
  -9.500  -0.6974   0.10968   0.10551   0.0196  1.0000  0.0713  -2.1703   0.0000   0.0000   0.0000   0.2732
  -9.400  -0.6903   0.10774   0.10356   0.0221  1.0000  0.0719  -2.1055   0.0000   0.0000   0.0000   0.2773
  -9.300  -0.6854   0.10617   0.10199   0.0232  1.0000  0.0723  -2.0695   0.0000   0.0000   0.0000   0.2791
  -9.200  -0.6822   0.10460   0.10042   0.0235  1.0000  0.0727  -2.0490   0.0000   0.0000   0.0000   0.2799
  -7.900  -0.7237   0.05965   0.05506  -0.0086  1.0000  0.0362  -3.2933   0.0000   0.0000   0.0000   0.2335
  -7.800  -0.7214   0.05782   0.05321  -0.0089  1.0000  0.0354  -3.2837   0.0000   0.0000   0.0000   0.2331
  -7.700  -0.7205   0.05551   0.05083  -0.0095  1.0000  0.0344  -3.3121   0.0000   0.0000   0.0000   0.2322
  -7.600  -0.7344   0.04768   0.04210  -0.0118  1.0000  0.0291  -3.8438   0.0000   0.0000   0.0000   0.2290
  -7.500  -0.7270   0.04644   0.04074  -0.0117  1.0000  0.0284  -3.8220   0.0000   0.0000   0.0000   0.2291
  -7.400  -0.7232   0.04424   0.03847  -0.0118  1.0000  0.0280  -3.8274   0.0000   0.0000   0.0000   0.2289
  -7.300  -0.7189   0.04223   0.03632  -0.0118  1.0000  0.0275  -3.8362   0.0000   0.0000   0.0000   0.2288
  -7.200  -0.7140   0.04029   0.03422  -0.0118  1.0000  0.0271  -3.8484   0.0000   0.0000   0.0000   0.2287
  -7.100  -0.7086   0.03841   0.03214  -0.0118  1.0000  0.0267  -3.8637   0.0000   0.0000   0.0000   0.2287
  -7.000  -0.7027   0.03657   0.03009  -0.0116  1.0000  0.0263  -3.8814   0.0000   0.0000   0.0000   0.2288
  -6.900  -0.6961   0.03479   0.02809  -0.0114  1.0000  0.0259  -3.9000   0.0000   0.0000   0.0000   0.2290
  -6.800  -0.6890   0.03309   0.02615  -0.0111  1.0000  0.0256  -3.9172   0.0000   0.0000   0.0000   0.2292
  -6.700  -0.6813   0.03150   0.02433  -0.0108  1.0000  0.0253  -3.9306   0.0000   0.0000   0.0000   0.2295
  -6.600  -0.6731   0.03004   0.02263  -0.0105  1.0000  0.0252  -3.9379   0.0000   0.0000   0.0000   0.2299
  -6.500  -0.6645   0.02869   0.02107  -0.0101  1.0000  0.0251  -3.9379   0.0000   0.0000   0.0000   0.2303
  -6.400  -0.6555   0.02747   0.01965  -0.0097  1.0000  0.0251  -3.9302   0.0000   0.0000   0.0000   0.2306
  -6.300  -0.6461   0.02635   0.01836  -0.0094  1.0000  0.0253  -3.9156   0.0000   0.0000   0.0000   0.2311
  -6.200  -0.6366   0.02533   0.01719  -0.0090  1.0000  0.0256  -3.8957   0.0000   0.0000   0.0000   0.2315
  -6.100  -0.6269   0.02438   0.01612  -0.0086  1.0000  0.0260  -3.8718   0.0000   0.0000   0.0000   0.2319
  -6.000  -0.6170   0.02351   0.01512  -0.0082  1.0000  0.0265  -3.8457   0.0000   0.0000   0.0000   0.2324
  -5.900  -0.6071   0.02270   0.01421  -0.0079  1.0000  0.0273  -3.8181   0.0000   0.0000   0.0000   0.2328
  -5.800  -0.5971   0.02199   0.01339  -0.0075  1.0000  0.0281  -3.7893   0.0000   0.0000   0.0000   0.2333
  -5.700  -0.5875   0.02112   0.01247  -0.0070  1.0000  0.0291  -3.7674   0.0000   0.0000   0.0000   0.2339
  -5.600  -0.5788   0.02022   0.01160  -0.0067  1.0000  0.0308  -3.7246   0.0000   0.0000   0.0000   0.2343
  -5.500  -0.5691   0.01974   0.01114  -0.0065  1.0000  0.0334  -3.6580   0.0000   0.0000   0.0000   0.2346
  -5.400  -0.5586   0.01947   0.01077  -0.0063  1.0000  0.0379  -3.5919   0.0000   0.0000   0.0000   0.2349
  -5.300  -0.5494   0.01897   0.01037  -0.0062  1.0000  0.0438  -3.5052   0.0000   0.0000   0.0000   0.2349
  -5.200  -0.5399   0.01832   0.00973  -0.0059  1.0000  0.0506  -3.4697   0.0000   0.0000   0.0000   0.2354
  -5.100  -0.5305   0.01756   0.00895  -0.0054  1.0000  0.0606  -3.4614   0.0000   0.0000   0.0000   0.2361
  -5.000  -0.5217   0.01662   0.00821  -0.0050  1.0000  0.0880  -3.4844   0.0000   0.0000   0.0000   0.2368
  -4.900  -0.5115   0.01636   0.00799  -0.0049  1.0000  0.1149  -3.4029   0.0000   0.0000   0.0000   0.2368
  -4.800  -0.5020   0.01601   0.00774  -0.0048  1.0000  0.1336  -3.3009   0.0000   0.0000   0.0000   0.2369
  -4.700  -0.4918   0.01577   0.00752  -0.0047  1.0000  0.1497  -3.1935   0.0000   0.0000   0.0000   0.2371
  -4.600  -0.4820   0.01547   0.00727  -0.0045  1.0000  0.1646  -3.0845   0.0000   0.0000   0.0000   0.2373
  -4.500  -0.4723   0.01511   0.00700  -0.0043  1.0000  0.1793  -2.9766   0.0000   0.0000   0.0000   0.2376
  -4.400  -0.4624   0.01474   0.00670  -0.0040  1.0000  0.1944  -2.8702   0.0000   0.0000   0.0000   0.2380
  -4.300  -0.4524   0.01442   0.00643  -0.0038  1.0000  0.2112  -2.7624   0.0000   0.0000   0.0000   0.2384
  -4.200  -0.4424   0.01413   0.00617  -0.0036  1.0000  0.2293  -2.6540   0.0000   0.0000   0.0000   0.2387
  -4.100  -0.4325   0.01380   0.00593  -0.0034  1.0000  0.2485  -2.5464   0.0000   0.0000   0.0000   0.2391
  -4.000  -0.4229   0.01345   0.00570  -0.0031  1.0000  0.2688  -2.4396   0.0000   0.0000   0.0000   0.2396
  -3.900  -0.4132   0.01314   0.00550  -0.0029  1.0000  0.2911  -2.3328   0.0000   0.0000   0.0000   0.2401
  -3.800  -0.4035   0.01284   0.00531  -0.0026  1.0000  0.3153  -2.2265   0.0000   0.0000   0.0000   0.2406
  -3.700  -0.3938   0.01256   0.00514  -0.0023  1.0000  0.3409  -2.1268   0.0000   0.0000   0.0000   0.2412
  -3.600  -0.3841   0.01230   0.00498  -0.0020  1.0000  0.3676  -2.0431   0.0000   0.0000   0.0000   0.2419
  -3.500  -0.3745   0.01204   0.00485  -0.0017  1.0000  0.3953  -1.9597   0.0000   0.0000   0.0000   0.2427
  -3.400  -0.3651   0.01178   0.00473  -0.0013  1.0000  0.4237  -1.8763   0.0000   0.0000   0.0000   0.2436
  -3.300  -0.3557   0.01155   0.00458  -0.0009  1.0000  0.4534  -1.7899   0.0000   0.0000   0.0000   0.2447
  -3.200  -0.3464   0.01133   0.00450  -0.0005  1.0000  0.4841  -1.7103   0.0000   0.0000   0.0000   0.2460
  -3.100  -0.3371   0.01113   0.00443   0.0000  1.0000  0.5153  -1.6316   0.0000   0.0000   0.0000   0.2475
  -3.000  -0.3278   0.01095   0.00436   0.0006  1.0000  0.5461  -1.5538   0.0000   0.0000   0.0000   0.2491
  -2.900  -0.3185   0.01079   0.00430   0.0011  1.0000  0.5763  -1.4771   0.0000   0.0000   0.0000   0.2510
  -2.800  -0.3094   0.01063   0.00425   0.0017  1.0000  0.6048  -1.4017   0.0000   0.0000   0.0000   0.2531
  -2.700  -0.3003   0.01048   0.00420   0.0024  1.0000  0.6319  -1.3276   0.0000   0.0000   0.0000   0.2555
  -2.600  -0.2913   0.01034   0.00415   0.0030  1.0000  0.6580  -1.2546   0.0000   0.0000   0.0000   0.2581
  -2.500  -0.2823   0.01021   0.00411   0.0038  1.0000  0.6834  -1.1829   0.0000   0.0000   0.0000   0.2610
  -2.400  -0.2734   0.01009   0.00407   0.0045  1.0000  0.7083  -1.1126   0.0000   0.0000   0.0000   0.2643
  -2.300  -0.2646   0.00998   0.00404   0.0053  1.0000  0.7324  -1.0436   0.0000   0.0000   0.0000   0.2679
  -2.200  -0.2559   0.00987   0.00400   0.0062  1.0000  0.7563  -0.9759   0.0000   0.0000   0.0000   0.2719
  -2.100  -0.2472   0.00978   0.00398   0.0071  1.0000  0.7801  -0.9095   0.0000   0.0000   0.0000   0.2764
  -2.000  -0.2384   0.00969   0.00395   0.0080  1.0000  0.8036  -0.8439   0.0000   0.0000   0.0000   0.2813
  -1.900  -0.2292   0.00962   0.00393   0.0088  1.0000  0.8273  -0.8007   0.0000   0.0000   0.0000   0.2864
  -1.800  -0.2195   0.00955   0.00391   0.0096  1.0000  0.8511  -0.7737   0.0000   0.0000   0.0000   0.2916
  -1.700  -0.2089   0.00950   0.00388   0.0102  1.0000  0.8754  -0.7468   0.0000   0.0000   0.0000   0.2966
  -1.600  -0.1954   0.00946   0.00381   0.0102  1.0000  0.8991  -0.7162   0.0000   0.0000   0.0000   0.3000
  -1.500  -0.1785   0.00944   0.00378   0.0094  1.0000  0.9220  -0.6818   0.0000   0.0000   0.0000   0.3007
  -1.400  -0.1576   0.00944   0.00375   0.0078  1.0000  0.9427  -0.6428   0.0000   0.0000   0.0000   0.2972
  -1.300  -0.1342   0.00943   0.00370   0.0055  1.0000  0.9609  -0.6013   0.0000   0.0000   0.0000   0.2888
  -1.200  -0.1090   0.00941   0.00363   0.0028  1.0000  0.9760  -0.5601   0.0000   0.0000   0.0000   0.2731
  -1.100  -0.0824   0.00937   0.00354  -0.0004  1.0000  0.9890  -0.5208   0.0000   0.0000   0.0000   0.2429
  -1.000  -0.0564   0.00932   0.00344  -0.0035  1.0000  1.0000  -0.4829   0.0000   0.0000   0.0000   0.1843
  -0.900  -0.0489   0.00925   0.00336  -0.0032  1.0000  1.0000  -0.4654   0.0000   0.0000   0.0000   0.1812
  -0.800  -0.0412   0.00919   0.00329  -0.0029  1.0000  1.0000  -0.4477   0.0000   0.0000   0.0000   0.1770
  -0.700  -0.0333   0.00915   0.00323  -0.0025  1.0000  1.0000  -0.4298   0.0000   0.0000   0.0000   0.1705
  -0.600  -0.0253   0.00912   0.00318  -0.0022  1.0000  1.0000  -0.4131   0.0000   0.0000   0.0000   0.1600
  -0.500  -0.0173   0.00909   0.00315  -0.0018  1.0000  1.0000  -0.3988   0.0000   0.0000   0.0000   0.1409
  -0.400  -0.0093   0.00908   0.00313  -0.0014  1.0000  1.0000  -0.3846   0.0000   0.0000   0.0000   0.0894
  -0.300  -0.0012   0.00907   0.00310  -0.0011  1.0000  1.0000  -0.3886   0.0000   0.0000   0.0000  -0.6188
  -0.200   0.0067   0.00907   0.00310  -0.0007  1.0000  1.0000  -0.4002   0.0000   0.0000   0.0000   0.3505
  -0.100   0.0146   0.00908   0.00311  -0.0003  1.0000  1.0000  -0.4118   0.0000   0.0000   0.0000   0.2679
   0.000   0.0222   0.00910   0.00314   0.0001  1.0000  1.0000  -0.4231   0.0000   0.0000   0.0000   0.2427
   0.100   0.0294   0.00913   0.00318   0.0005  1.0000  1.0000  -0.4341   0.0000   0.0000   0.0000   0.2296
   0.200   0.0458   0.00917   0.00324  -0.0008  0.9921  1.0000  -0.4519   0.0000   0.0000   0.0000   0.2666
   0.300   0.0730   0.00921   0.00328  -0.0042  0.9714  1.0000  -0.4803   0.0000   0.0000   0.0000   0.3052
   0.400   0.0984   0.00923   0.00330  -0.0070  0.9472  1.0000  -0.5079   0.0000   0.0000   0.0000   0.3191
   0.500   0.1214   0.00926   0.00331  -0.0091  0.9198  1.0000  -0.5339   0.0000   0.0000   0.0000   0.3237
   0.600   0.1396   0.00930   0.00330  -0.0102  0.8906  1.0000  -0.5563   0.0000   0.0000   0.0000   0.3216
   0.700   0.1527   0.00936   0.00329  -0.0102  0.8617  1.0000  -0.5747   0.0000   0.0000   0.0000   0.3152
   0.800   0.1630   0.00944   0.00329  -0.0096  0.8349  1.0000  -0.5908   0.0000   0.0000   0.0000   0.3074
   0.900   0.1723   0.00953   0.00329  -0.0089  0.8097  1.0000  -0.6066   0.0000   0.0000   0.0000   0.2998
   1.000   0.1812   0.00963   0.00330  -0.0081  0.7866  1.0000  -0.6232   0.0000   0.0000   0.0000   0.2930
   1.100   0.1901   0.00973   0.00331  -0.0074  0.7649  1.0000  -0.6398   0.0000   0.0000   0.0000   0.2869
   1.200   0.1992   0.00985   0.00335  -0.0067  0.7444  1.0000  -0.6566   0.0000   0.0000   0.0000   0.2817
   1.300   0.2082   0.00997   0.00336  -0.0060  0.7249  1.0000  -0.6751   0.0000   0.0000   0.0000   0.2770
   1.400   0.2174   0.01009   0.00338  -0.0054  0.7060  1.0000  -0.6942   0.0000   0.0000   0.0000   0.2728
   1.500   0.2268   0.01020   0.00342  -0.0049  0.6870  1.0000  -0.7155   0.0000   0.0000   0.0000   0.2695
   1.600   0.2362   0.01032   0.00345  -0.0044  0.6692  1.0000  -0.7370   0.0000   0.0000   0.0000   0.2665
   1.700   0.2455   0.01045   0.00347  -0.0038  0.6525  1.0000  -0.7585   0.0000   0.0000   0.0000   0.2635
   1.800   0.2551   0.01056   0.00351  -0.0034  0.6344  1.0000  -0.7805   0.0000   0.0000   0.0000   0.2612
   1.900   0.2648   0.01068   0.00355  -0.0030  0.6174  1.0000  -0.8026   0.0000   0.0000   0.0000   0.2591
   2.000   0.2743   0.01083   0.00358  -0.0025  0.6022  1.0000  -0.8256   0.0000   0.0000   0.0000   0.2568
   2.100   0.2843   0.01093   0.00363  -0.0022  0.5848  1.0000  -0.8509   0.0000   0.0000   0.0000   0.2554
   2.200   0.2940   0.01106   0.00368  -0.0018  0.5696  1.0000  -0.8763   0.0000   0.0000   0.0000   0.2538
   2.300   0.3039   0.01119   0.00373  -0.0014  0.5542  1.0000  -0.9018   0.0000   0.0000   0.0000   0.2523
   2.400   0.3139   0.01131   0.00379  -0.0012  0.5389  1.0000  -0.9277   0.0000   0.0000   0.0000   0.2512
   2.500   0.3237   0.01146   0.00384  -0.0008  0.5251  1.0000  -0.9535   0.0000   0.0000   0.0000   0.2499
   2.600   0.3340   0.01157   0.00392  -0.0006  0.5102  1.0000  -0.9798   0.0000   0.0000   0.0000   0.2491
   2.700   0.3437   0.01174   0.00397  -0.0002  0.4976  1.0000  -1.0059   0.0000   0.0000   0.0000   0.2480
   2.800   0.3541   0.01184   0.00407  -0.0000  0.4830  1.0000  -1.0325   0.0000   0.0000   0.0000   0.2474
   2.900   0.3639   0.01202   0.00413   0.0003  0.4711  1.0000  -1.0590   0.0000   0.0000   0.0000   0.2464
   3.000   0.3744   0.01212   0.00431   0.0005  0.4571  1.0000  -1.0859   0.0000   0.0000   0.0000   0.2459
   3.100   0.3843   0.01231   0.00438   0.0008  0.4455  1.0000  -1.1154   0.0000   0.0000   0.0000   0.2451
   3.200   0.3948   0.01242   0.00451   0.0010  0.4322  1.0000  -1.1463   0.0000   0.0000   0.0000   0.2447
   3.300   0.4048   0.01259   0.00458   0.0012  0.4209  1.0000  -1.1781   0.0000   0.0000   0.0000   0.2440
   3.400   0.4152   0.01273   0.00472   0.0014  0.4085  1.0000  -1.2141   0.0000   0.0000   0.0000   0.2436
   3.500   0.4253   0.01289   0.00481   0.0017  0.3973  1.0000  -1.2549   0.0000   0.0000   0.0000   0.2431
   3.600   0.4356   0.01306   0.00495   0.0018  0.3860  1.0000  -1.2970   0.0000   0.0000   0.0000   0.2427
   3.700   0.4459   0.01320   0.00506   0.0020  0.3745  1.0000  -1.3398   0.0000   0.0000   0.0000   0.2423
   3.800   0.4560   0.01340   0.00519   0.0023  0.3640  1.0000  -1.3825   0.0000   0.0000   0.0000   0.2419
   3.900   0.4665   0.01352   0.00532   0.0024  0.3523  1.0000  -1.4260   0.0000   0.0000   0.0000   0.2415
   4.000   0.4764   0.01377   0.00544   0.0027  0.3426  1.0000  -1.4693   0.0000   0.0000   0.0000   0.2411
   4.100   0.4870   0.01387   0.00560   0.0028  0.3312  1.0000  -1.5133   0.0000   0.0000   0.0000   0.2409
   4.200   0.4970   0.01407   0.00571   0.0030  0.3215  1.0000  -1.5609   0.0000   0.0000   0.0000   0.2405
   4.300   0.5074   0.01424   0.00589   0.0032  0.3109  1.0000  -1.6128   0.0000   0.0000   0.0000   0.2402
   4.400   0.5177   0.01440   0.00602   0.0034  0.3009  1.0000  -1.6657   0.0000   0.0000   0.0000   0.2399
   4.500   0.5278   0.01464   0.00621   0.0035  0.2917  1.0000  -1.7181   0.0000   0.0000   0.0000   0.2397
   4.600   0.5383   0.01478   0.00644   0.0037  0.2815  1.0000  -1.7720   0.0000   0.0000   0.0000   0.2394
   4.700   0.5481   0.01506   0.00660   0.0039  0.2730  1.0000  -1.8254   0.0000   0.0000   0.0000   0.2391
   4.800   0.5587   0.01520   0.00682   0.0040  0.2632  1.0000  -1.8788   0.0000   0.0000   0.0000   0.2389
   4.900   0.5689   0.01539   0.00697   0.0042  0.2545  1.0000  -1.9333   0.0000   0.0000   0.0000   0.2387
   5.000   0.5790   0.01567   0.00721   0.0044  0.2459  1.0000  -1.9867   0.0000   0.0000   0.0000   0.2384
   5.100   0.5894   0.01583   0.00740   0.0046  0.2367  1.0000  -2.0414   0.0000   0.0000   0.0000   0.2382
   5.200   0.5992   0.01616   0.00761   0.0047  0.2288  1.0000  -2.0960   0.0000   0.0000   0.0000   0.2380
   5.300   0.6098   0.01633   0.00788   0.0049  0.2201  1.0000  -2.1496   0.0000   0.0000   0.0000   0.2378
   5.400   0.6199   0.01654   0.00807   0.0051  0.2123  1.0000  -2.2050   0.0000   0.0000   0.0000   0.2375
   5.500   0.6299   0.01689   0.00837   0.0052  0.2046  1.0000  -2.2584   0.0000   0.0000   0.0000   0.2373
   5.600   0.6402   0.01707   0.00861   0.0054  0.1961  1.0000  -2.3131   0.0000   0.0000   0.0000   0.2371
   5.700   0.6499   0.01742   0.00884   0.0056  0.1888  1.0000  -2.3686   0.0000   0.0000   0.0000   0.2369
   5.800   0.6603   0.01764   0.00916   0.0057  0.1805  1.0000  -2.4215   0.0000   0.0000   0.0000   0.2367
   5.900   0.6703   0.01787   0.00936   0.0059  0.1731  1.0000  -2.5023   0.0000   0.0000   0.0000   0.2365
   6.000   0.6801   0.01828   0.00974   0.0061  0.1660  1.0000  -2.6040   0.0000   0.0000   0.0000   0.2363
   6.100   0.6903   0.01849   0.01001   0.0063  0.1582  1.0000  -2.7096   0.0000   0.0000   0.0000   0.2361
   6.200   0.6999   0.01887   0.01034   0.0064  0.1517  1.0000  -2.8221   0.0000   0.0000   0.0000   0.2359
   6.300   0.7101   0.01919   0.01077   0.0066  0.1448  1.0000  -2.9285   0.0000   0.0000   0.0000   0.2356
   6.400   0.7200   0.01943   0.01101   0.0068  0.1382  1.0000  -3.0400   0.0000   0.0000   0.0000   0.2354
   6.500   0.7295   0.01995   0.01144   0.0069  0.1322  1.0000  -3.1471   0.0000   0.0000   0.0000   0.2352
   6.600   0.7397   0.02017   0.01180   0.0071  0.1256  1.0000  -3.2553   0.0000   0.0000   0.0000   0.2350
   6.700   0.7494   0.02048   0.01206   0.0073  0.1202  1.0000  -3.3685   0.0000   0.0000   0.0000   0.2348
   6.800   0.7589   0.02114   0.01271   0.0075  0.1153  1.0000  -3.4693   0.0000   0.0000   0.0000   0.2346
   6.900   0.7689   0.02152   0.01321   0.0077  0.1100  1.0000  -3.5728   0.0000   0.0000   0.0000   0.2343
   7.000   0.7786   0.02188   0.01354   0.0079  0.1053  1.0000  -3.6857   0.0000   0.0000   0.0000   0.2341
   7.100   0.7877   0.02265   0.01425   0.0081  0.1009  1.0000  -3.7881   0.0000   0.0000   0.0000   0.2339
   7.200   0.7976   0.02297   0.01475   0.0083  0.0961  1.0000  -3.8927   0.0000   0.0000   0.0000   0.2337
   7.300   0.8072   0.02329   0.01506   0.0085  0.0918  1.0000  -4.0088   0.0000   0.0000   0.0000   0.2335
   7.400   0.8162   0.02404   0.01570   0.0086  0.0883  1.0000  -4.1190   0.0000   0.0000   0.0000   0.2333
   7.500   0.8258   0.02473   0.01655   0.0089  0.0855  1.0000  -4.2109   0.0000   0.0000   0.0000   0.2330
   7.600   0.8354   0.02534   0.01731   0.0092  0.0826  1.0000  -4.3067   0.0000   0.0000   0.0000   0.2327
   7.700   0.8449   0.02594   0.01798   0.0095  0.0799  1.0000  -4.4086   0.0000   0.0000   0.0000   0.2325
   7.800   0.8543   0.02652   0.01857   0.0097  0.0777  1.0000  -4.5171   0.0000   0.0000   0.0000   0.2322
   7.900   0.8633   0.02738   0.01939   0.0098  0.0757  1.0000  -4.6221   0.0000   0.0000   0.0000   0.2321
   8.000   0.8716   0.02873   0.02088   0.0100  0.0741  1.0000  -4.6943   0.0000   0.0000   0.0000   0.2319
   8.100   0.8804   0.02952   0.02192   0.0104  0.0726  1.0000  -4.7716   0.0000   0.0000   0.0000   0.2315
   8.200   0.8889   0.03034   0.02294   0.0106  0.0706  1.0000  -4.8527   0.0000   0.0000   0.0000   0.2312
   8.300   0.8976   0.03098   0.02370   0.0109  0.0684  1.0000  -4.9500   0.0000   0.0000   0.0000   0.2310
   8.400   0.9064   0.03141   0.02417   0.0110  0.0661  1.0000  -5.0654   0.0000   0.0000   0.0000   0.2308
   8.500   0.9152   0.03195   0.02465   0.0111  0.0641  1.0000  -5.1894   0.0000   0.0000   0.0000   0.2307
   8.600   0.9221   0.03361   0.02633   0.0112  0.0627  1.0000  -5.2637   0.0000   0.0000   0.0000   0.2306
   8.700   0.9286   0.03493   0.02790   0.0115  0.0618  1.0000  -5.3129   0.0000   0.0000   0.0000   0.2303
   8.800   0.9349   0.03618   0.02944   0.0118  0.0610  1.0000  -5.3565   0.0000   0.0000   0.0000   0.2300
   8.900   0.9403   0.03764   0.03119   0.0121  0.0601  1.0000  -5.3881   0.0000   0.0000   0.0000   0.2297
   9.000   0.9448   0.03928   0.03310   0.0123  0.0593  1.0000  -5.4090   0.0000   0.0000   0.0000   0.2295
   9.100   0.9485   0.04107   0.03514   0.0125  0.0585  1.0000  -5.4198   0.0000   0.0000   0.0000   0.2293
   9.200   0.9516   0.04283   0.03714   0.0126  0.0577  1.0000  -5.4299   0.0000   0.0000   0.0000   0.2292
   9.300   0.9559   0.04411   0.03857   0.0126  0.0563  1.0000  -5.4722   0.0000   0.0000   0.0000   0.2291
   9.400   0.9704   0.04292   0.03707   0.0129  0.0531  1.0000  -5.7149   0.0000   0.0000   0.0000   0.2288
   9.500   0.9737   0.04507   0.03914   0.0127  0.0514  1.0000  -5.7782   0.0000   0.0000   0.0000   0.2289
   9.600   0.9736   0.04644   0.04087   0.0128  0.0505  1.0000  -5.7623   0.0000   0.0000   0.0000   0.2288
   9.700   0.9722   0.04844   0.04317   0.0127  0.0498  1.0000  -5.7250   0.0000   0.0000   0.0000   0.2288
   9.800   0.9695   0.05073   0.04570   0.0125  0.0494  1.0000  -5.6756   0.0000   0.0000   0.0000   0.2289
   9.900   0.9653   0.05311   0.04830   0.0121  0.0492  1.0000  -5.6192   0.0000   0.0000   0.0000   0.2293
  10.000   0.9599   0.05556   0.05093   0.0115  0.0491  1.0000  -5.5579   0.0000   0.0000   0.0000   0.2298
  10.100   0.9532   0.05802   0.05355   0.0107  0.0491  1.0000  -5.4939   0.0000   0.0000   0.0000   0.2305
  10.200   0.9456   0.06049   0.05614   0.0096  0.0492  1.0000  -5.4294   0.0000   0.0000   0.0000   0.2314
  10.300   0.9371   0.06279   0.05853   0.0086  0.0494  1.0000  -5.3687   0.0000   0.0000   0.0000   0.2323
  10.400   0.9283   0.06514   0.06095   0.0071  0.0497  1.0000  -5.3096   0.0000   0.0000   0.0000   0.2337
  10.500   0.9197   0.06774   0.06359   0.0050  0.0499  1.0000  -5.2477   0.0000   0.0000   0.0000   0.2359
  10.600   0.9114   0.07060   0.06649   0.0024  0.0503  1.0000  -5.1815   0.0000   0.0000   0.0000   0.2385
  10.700   0.9034   0.07369   0.06960  -0.0002  0.0506  1.0000  -5.1112   0.0000   0.0000   0.0000   0.2413
  10.800   0.8957   0.07692   0.07285  -0.0028  0.0508  1.0000  -5.0377   0.0000   0.0000   0.0000   0.2441
  10.900   0.8886   0.08023   0.07616  -0.0052  0.0511  1.0000  -4.9628   0.0000   0.0000   0.0000   0.2468
  11.000   0.8820   0.08351   0.07944  -0.0073  0.0513  1.0000  -4.8892   0.0000   0.0000   0.0000   0.2491
  11.500   0.7501   0.13596   0.13158  -0.0442  0.1060  1.0000  -2.4296   0.0000   0.0000   0.0000   0.3017
  11.600   0.7556   0.13733   0.13297  -0.0436  0.1048  1.0000  -2.4797   0.0000   0.0000   0.0000   0.3004
  11.700   0.7645   0.13871   0.13438  -0.0423  0.1037  1.0000  -2.5614   0.0000   0.0000   0.0000   0.2979
  11.800   0.7835   0.14189   0.13762  -0.0373  0.1019  1.0000  -2.7469   0.0000   0.0000   0.0000   0.2901
  11.900   0.7785   0.14392   0.13962  -0.0396  0.1017  1.0000  -2.6796   0.0000   0.0000   0.0000   0.2932
  12.000   0.7728   0.14581   0.14149  -0.0419  0.1015  1.0000  -2.6067   0.0000   0.0000   0.0000   0.2966
  12.100   0.7662   0.14760   0.14325  -0.0445  0.1011  1.0000  -2.5253   0.0000   0.0000   0.0000   0.3004
  12.200   0.7587   0.14928   0.14489  -0.0473  0.1004  1.0000  -2.4351   0.0000   0.0000   0.0000   0.3046
  12.300   0.7522   0.15084   0.14643  -0.0498  0.0989  1.0000  -2.3572   0.0000   0.0000   0.0000   0.3085
  12.400   0.7499   0.15240   0.14797  -0.0513  0.0968  1.0000  -2.3206   0.0000   0.0000   0.0000   0.3106
  12.500   0.7510   0.15381   0.14939  -0.0519  0.0942  1.0000  -2.3208   0.0000   0.0000   0.0000   0.3112
  12.800   0.7811   0.15973   0.15541  -0.0463  0.0874  1.0000  -2.5700   0.0000   0.0000   0.0000   0.3009
  12.900   0.7762   0.16144   0.15709  -0.0486  0.0872  1.0000  -2.4958   0.0000   0.0000   0.0000   0.3043
  13.000   0.7700   0.16298   0.15859  -0.0514  0.0867  1.0000  -2.4118   0.0000   0.0000   0.0000   0.3083
  13.100   0.7633   0.16425   0.15983  -0.0540  0.0858  1.0000  -2.3295   0.0000   0.0000   0.0000   0.3123
  13.200   0.7598   0.16567   0.16124  -0.0559  0.0841  1.0000  -2.2716   0.0000   0.0000   0.0000   0.3151
  13.300   0.7596   0.16724   0.16280  -0.0569  0.0823  1.0000  -2.2434   0.0000   0.0000   0.0000   0.3164
  13.400   0.7610   0.16878   0.16435  -0.0576  0.0805  1.0000  -2.2311   0.0000   0.0000   0.0000   0.3170
  13.500   0.7638   0.17026   0.16583  -0.0578  0.0789  1.0000  -2.2322   0.0000   0.0000   0.0000   0.3170
  13.600   0.7689   0.17173   0.16731  -0.0575  0.0773  1.0000  -2.2541   0.0000   0.0000   0.0000   0.3159
  13.700   0.7875   0.17569   0.17131  -0.0531  0.0742  1.0000  -2.3794   0.0000   0.0000   0.0000   0.3084
  13.800   0.7839   0.17721   0.17281  -0.0552  0.0740  1.0000  -2.3107   0.0000   0.0000   0.0000   0.3114
  13.900   0.7796   0.17846   0.17404  -0.0573  0.0737  1.0000  -2.2438   0.0000   0.0000   0.0000   0.3144
  14.000   0.7752   0.17955   0.17512  -0.0594  0.0732  1.0000  -2.1770   0.0000   0.0000   0.0000   0.3175
  14.100   0.7721   0.18081   0.17635  -0.0615  0.0718  1.0000  -2.1122   0.0000   0.0000   0.0000   0.3205
  14.200   0.7722   0.18223   0.17777  -0.0628  0.0692  1.0000  -2.0765   0.0000   0.0000   0.0000   0.3221
  14.300   0.7777   0.18315   0.17870  -0.0623  0.0652  1.0000  -2.1150   0.0000   0.0000   0.0000   0.3207
  14.400   0.8016   0.18778   0.18343  -0.0561  0.0624  1.0000  -2.3089   0.0000   0.0000   0.0000   0.3103
  14.500   0.8005   0.18951   0.18515  -0.0577  0.0623  1.0000  -2.2556   0.0000   0.0000   0.0000   0.3123
  14.600   0.7989   0.19110   0.18672  -0.0595  0.0622  1.0000  -2.1977   0.0000   0.0000   0.0000   0.3146
  14.700   0.7964   0.19243   0.18803  -0.0613  0.0620  1.0000  -2.1362   0.0000   0.0000   0.0000   0.3172
  14.800   0.7928   0.19341   0.18899  -0.0634  0.0617  1.0000  -2.0719   0.0000   0.0000   0.0000   0.3201
  14.900   0.7896   0.19441   0.18996  -0.0656  0.0612  1.0000  -2.0020   0.0000   0.0000   0.0000   0.3232
  15.000   0.7882   0.19572   0.19123  -0.0676  0.0601  1.0000  -1.9406   0.0000   0.0000   0.0000   0.3258


