xflr5 v6.61

 Calculated polar for: S8025 (8%)

 1 1 Reynolds number fixed          Mach number fixed         

 xtrf =   1.000 (top)        1.000 (bottom)
 Mach =   0.000     Re =     0.500 e 6     Ncrit =   9.000

  alpha     CL        CD       CDp       Cm    Top Xtr Bot Xtr   Cpmin    Chinge    XCp    
 ------- -------- --------- --------- -------- ------- ------- -------- --------- ---------
 -10.000  -0.6953   0.10872   0.10651   0.0331  1.0000  0.0164  -2.4284   0.0000   0.0000   0.0000   0.2921
  -9.900  -0.6952   0.10689   0.10469   0.0323  1.0000  0.0165  -2.4378   0.0000   0.0000   0.0000   0.2909
  -9.800  -0.6952   0.10501   0.10282   0.0313  1.0000  0.0166  -2.4502   0.0000   0.0000   0.0000   0.2896
  -9.700  -0.6954   0.10308   0.10089   0.0303  1.0000  0.0168  -2.4660   0.0000   0.0000   0.0000   0.2882
  -9.600  -0.6959   0.10110   0.09892   0.0293  1.0000  0.0169  -2.4850   0.0000   0.0000   0.0000   0.2868
  -9.500  -0.6966   0.09907   0.09690   0.0282  1.0000  0.0171  -2.5074   0.0000   0.0000   0.0000   0.2852
  -9.400  -0.6975   0.09699   0.09482   0.0271  1.0000  0.0172  -2.5332   0.0000   0.0000   0.0000   0.2836
  -9.300  -0.6987   0.09484   0.09269   0.0259  1.0000  0.0173  -2.5626   0.0000   0.0000   0.0000   0.2818
  -9.200  -0.7001   0.09262   0.09047   0.0245  1.0000  0.0174  -2.5956   0.0000   0.0000   0.0000   0.2799
  -7.000  -0.7170   0.02420   0.01915  -0.0088  1.0000  0.0094  -4.8275   0.0000   0.0000   0.0000   0.2327
  -6.900  -0.7061   0.02423   0.01913  -0.0086  1.0000  0.0092  -4.7028   0.0000   0.0000   0.0000   0.2329
  -6.800  -0.6987   0.02249   0.01731  -0.0083  1.0000  0.0085  -4.7254   0.0000   0.0000   0.0000   0.2334
  -6.700  -0.6909   0.02103   0.01568  -0.0079  1.0000  0.0083  -4.7310   0.0000   0.0000   0.0000   0.2338
  -6.600  -0.6823   0.01990   0.01440  -0.0075  1.0000  0.0081  -4.7100   0.0000   0.0000   0.0000   0.2343
  -6.500  -0.6733   0.01893   0.01331  -0.0071  1.0000  0.0079  -4.6767   0.0000   0.0000   0.0000   0.2348
  -6.400  -0.6641   0.01807   0.01234  -0.0068  1.0000  0.0077  -4.6348   0.0000   0.0000   0.0000   0.2352
  -6.300  -0.6547   0.01729   0.01147  -0.0064  1.0000  0.0076  -4.5861   0.0000   0.0000   0.0000   0.2357
  -6.200  -0.6453   0.01659   0.01069  -0.0060  1.0000  0.0074  -4.5317   0.0000   0.0000   0.0000   0.2362
  -6.100  -0.6357   0.01595   0.00997  -0.0057  1.0000  0.0074  -4.4722   0.0000   0.0000   0.0000   0.2366
  -6.000  -0.6261   0.01536   0.00932  -0.0054  1.0000  0.0073  -4.4076   0.0000   0.0000   0.0000   0.2371
  -5.900  -0.6164   0.01483   0.00872  -0.0051  1.0000  0.0072  -4.3385   0.0000   0.0000   0.0000   0.2375
  -5.800  -0.6066   0.01433   0.00817  -0.0048  1.0000  0.0072  -4.2652   0.0000   0.0000   0.0000   0.2380
  -5.700  -0.5967   0.01388   0.00766  -0.0045  1.0000  0.0072  -4.1879   0.0000   0.0000   0.0000   0.2384
  -5.600  -0.5868   0.01345   0.00719  -0.0042  1.0000  0.0072  -4.1074   0.0000   0.0000   0.0000   0.2388
  -5.500  -0.5768   0.01306   0.00675  -0.0039  1.0000  0.0072  -4.0243   0.0000   0.0000   0.0000   0.2392
  -5.400  -0.5668   0.01270   0.00635  -0.0037  1.0000  0.0073  -3.9390   0.0000   0.0000   0.0000   0.2396
  -5.300  -0.5566   0.01236   0.00597  -0.0034  1.0000  0.0073  -3.8518   0.0000   0.0000   0.0000   0.2399
  -5.200  -0.5463   0.01205   0.00562  -0.0032  1.0000  0.0075  -3.7631   0.0000   0.0000   0.0000   0.2403
  -5.100  -0.5360   0.01176   0.00529  -0.0030  1.0000  0.0076  -3.6729   0.0000   0.0000   0.0000   0.2407
  -5.000  -0.5256   0.01151   0.00497  -0.0028  1.0000  0.0077  -3.5709   0.0000   0.0000   0.0000   0.2410
  -4.900  -0.5151   0.01126   0.00468  -0.0026  1.0000  0.0080  -3.4820   0.0000   0.0000   0.0000   0.2414
  -4.800  -0.5046   0.01104   0.00441  -0.0024  1.0000  0.0083  -3.3937   0.0000   0.0000   0.0000   0.2417
  -4.700  -0.4940   0.01084   0.00417  -0.0022  1.0000  0.0087  -3.3054   0.0000   0.0000   0.0000   0.2421
  -4.600  -0.4835   0.01057   0.00385  -0.0020  1.0000  0.0097  -3.2435   0.0000   0.0000   0.0000   0.2425
  -4.500  -0.4732   0.01022   0.00349  -0.0017  1.0000  0.0142  -3.2085   0.0000   0.0000   0.0000   0.2431
  -4.400  -0.4641   0.00961   0.00314  -0.0014  1.0000  0.0517  -3.1638   0.0000   0.0000   0.0000   0.2436
  -4.300  -0.4537   0.00940   0.00302  -0.0013  1.0000  0.0652  -3.0485   0.0000   0.0000   0.0000   0.2439
  -4.200  -0.4433   0.00924   0.00291  -0.0012  1.0000  0.0761  -2.9256   0.0000   0.0000   0.0000   0.2442
  -4.100  -0.4328   0.00909   0.00281  -0.0010  1.0000  0.0871  -2.8006   0.0000   0.0000   0.0000   0.2444
  -3.900  -0.4119   0.00877   0.00262  -0.0008  1.0000  0.1134  -2.5522   0.0000   0.0000   0.0000   0.2450
  -3.800  -0.4015   0.00861   0.00254  -0.0007  1.0000  0.1273  -2.4299   0.0000   0.0000   0.0000   0.2453
  -3.700  -0.3910   0.00845   0.00245  -0.0006  1.0000  0.1424  -2.3090   0.0000   0.0000   0.0000   0.2456
  -3.600  -0.3807   0.00827   0.00237  -0.0004  1.0000  0.1633  -2.1902   0.0000   0.0000   0.0000   0.2459
  -3.500  -0.3705   0.00809   0.00230  -0.0003  1.0000  0.1863  -2.0735   0.0000   0.0000   0.0000   0.2463
  -3.400  -0.3603   0.00789   0.00223  -0.0002  1.0000  0.2123  -1.9599   0.0000   0.0000   0.0000   0.2466
  -3.300  -0.3502   0.00768   0.00214  -0.0001  1.0000  0.2414  -1.8524   0.0000   0.0000   0.0000   0.2470
  -3.200  -0.3398   0.00754   0.00207   0.0001  1.0000  0.2604  -1.7399   0.0000   0.0000   0.0000   0.2475
  -3.100  -0.3293   0.00742   0.00201   0.0002  1.0000  0.2763  -1.6289   0.0000   0.0000   0.0000   0.2479
  -3.000  -0.3188   0.00731   0.00195   0.0003  1.0000  0.2931  -1.5382   0.0000   0.0000   0.0000   0.2484
  -2.900  -0.3084   0.00718   0.00189   0.0005  1.0000  0.3097  -1.4562   0.0000   0.0000   0.0000   0.2490
  -2.800  -0.2979   0.00707   0.00184   0.0006  1.0000  0.3262  -1.3753   0.0000   0.0000   0.0000   0.2496
  -2.700  -0.2874   0.00697   0.00179   0.0008  1.0000  0.3440  -1.2958   0.0000   0.0000   0.0000   0.2502
  -2.600  -0.2770   0.00684   0.00174   0.0009  1.0000  0.3638  -1.2182   0.0000   0.0000   0.0000   0.2509
  -2.500  -0.2667   0.00672   0.00170   0.0011  1.0000  0.3841  -1.1421   0.0000   0.0000   0.0000   0.2517
  -2.400  -0.2564   0.00660   0.00166   0.0013  1.0000  0.4044  -1.0673   0.0000   0.0000   0.0000   0.2525
  -2.300  -0.2460   0.00650   0.00163   0.0014  1.0000  0.4244  -0.9938   0.0000   0.0000   0.0000   0.2534
  -2.200  -0.2356   0.00640   0.00159   0.0016  1.0000  0.4445  -0.9217   0.0000   0.0000   0.0000   0.2545
  -2.100  -0.2253   0.00629   0.00156   0.0018  1.0000  0.4642  -0.8514   0.0000   0.0000   0.0000   0.2556
  -2.000  -0.2151   0.00618   0.00154   0.0020  1.0000  0.4854  -0.8113   0.0000   0.0000   0.0000   0.2569
  -1.900  -0.2049   0.00607   0.00152   0.0022  1.0000  0.5090  -0.7840   0.0000   0.0000   0.0000   0.2584
  -1.800  -0.1947   0.00597   0.00151   0.0024  1.0000  0.5327  -0.7576   0.0000   0.0000   0.0000   0.2601
  -1.700  -0.1844   0.00587   0.00147   0.0026  0.9998  0.5563  -0.7313   0.0000   0.0000   0.0000   0.2619
  -1.600  -0.1677   0.00577   0.00146   0.0014  0.9920  0.5829  -0.6971   0.0000   0.0000   0.0000   0.2561
  -1.500  -0.1510   0.00569   0.00145   0.0002  0.9808  0.6059  -0.6632   0.0000   0.0000   0.0000   0.2493
  -1.400  -0.1338   0.00561   0.00145  -0.0010  0.9661  0.6269  -0.6290   0.0000   0.0000   0.0000   0.2403
  -1.300  -0.1162   0.00554   0.00143  -0.0023  0.9476  0.6457  -0.5946   0.0000   0.0000   0.0000   0.2282
  -1.200  -0.1004   0.00549   0.00142  -0.0031  0.9244  0.6638  -0.5625   0.0000   0.0000   0.0000   0.2167
  -1.100  -0.0883   0.00548   0.00140  -0.0031  0.8973  0.6815  -0.5373   0.0000   0.0000   0.0000   0.2130
  -1.000  -0.0785   0.00547   0.00138  -0.0025  0.8705  0.6991  -0.5157   0.0000   0.0000   0.0000   0.2157
  -0.900  -0.0693   0.00547   0.00137  -0.0018  0.8448  0.7163  -0.4950   0.0000   0.0000   0.0000   0.2211
  -0.800  -0.0602   0.00549   0.00135  -0.0012  0.8206  0.7337  -0.4744   0.0000   0.0000   0.0000   0.2281
  -0.600  -0.0417   0.00552   0.00133   0.0000  0.7774  0.7690  -0.4335   0.0000   0.0000   0.0000   0.2482
  -0.500  -0.0323   0.00552   0.00133   0.0006  0.7579  0.7867  -0.4140   0.0000   0.0000   0.0000   0.2655
  -0.400  -0.0228   0.00552   0.00133   0.0011  0.7398  0.8047  -0.3978   0.0000   0.0000   0.0000   0.2965
  -0.300  -0.0134   0.00553   0.00133   0.0017  0.7230  0.8233  -0.3822   0.0000   0.0000   0.0000   0.3721
  -0.200  -0.0040   0.00554   0.00132   0.0022  0.7069  0.8423  -0.3955   0.0000   0.0000   0.0000   0.8096
  -0.100   0.0056   0.00553   0.00132   0.0028  0.6925  0.8611  -0.4091   0.0000   0.0000   0.0000  -0.2412
   0.000   0.0152   0.00554   0.00133   0.0033  0.6784  0.8801  -0.4226   0.0000   0.0000   0.0000   0.0296
   0.100   0.0254   0.00554   0.00133   0.0037  0.6643  0.8988  -0.4367   0.0000   0.0000   0.0000   0.1000
   0.200   0.0363   0.00557   0.00133   0.0040  0.6503  0.9166  -0.4519   0.0000   0.0000   0.0000   0.1373
   0.300   0.0488   0.00561   0.00134   0.0039  0.6348  0.9328  -0.4693   0.0000   0.0000   0.0000   0.1677
   0.400   0.0628   0.00565   0.00134   0.0034  0.6195  0.9467  -0.4879   0.0000   0.0000   0.0000   0.1933
   0.600   0.0937   0.00578   0.00133   0.0018  0.5855  0.9689  -0.5278   0.0000   0.0000   0.0000   0.2292
   0.700   0.1099   0.00585   0.00132   0.0007  0.5688  0.9787  -0.5485   0.0000   0.0000   0.0000   0.2414
   0.900   0.1429   0.00598   0.00131  -0.0015  0.5345  0.9941  -0.5908   0.0000   0.0000   0.0000   0.2587
   1.000   0.1600   0.00605   0.00130  -0.0028  0.5188  0.9998  -0.6127   0.0000   0.0000   0.0000   0.2655
   1.100   0.1707   0.00610   0.00131  -0.0027  0.5056  1.0000  -0.6309   0.0000   0.0000   0.0000   0.2639
   1.200   0.1811   0.00617   0.00131  -0.0026  0.4940  1.0000  -0.6490   0.0000   0.0000   0.0000   0.2620
   1.300   0.1915   0.00622   0.00133  -0.0024  0.4821  1.0000  -0.6671   0.0000   0.0000   0.0000   0.2604
   1.400   0.2018   0.00629   0.00133  -0.0022  0.4700  1.0000  -0.6870   0.0000   0.0000   0.0000   0.2588
   1.500   0.2123   0.00634   0.00134  -0.0021  0.4584  1.0000  -0.7098   0.0000   0.0000   0.0000   0.2575
   1.600   0.2227   0.00642   0.00135  -0.0019  0.4461  1.0000  -0.7325   0.0000   0.0000   0.0000   0.2563
   1.700   0.2332   0.00647   0.00137  -0.0017  0.4352  1.0000  -0.7556   0.0000   0.0000   0.0000   0.2552
   1.800   0.2436   0.00655   0.00139  -0.0016  0.4235  1.0000  -0.7787   0.0000   0.0000   0.0000   0.2542
   1.900   0.2541   0.00661   0.00140  -0.0014  0.4137  1.0000  -0.8035   0.0000   0.0000   0.0000   0.2532
   2.000   0.2646   0.00667   0.00143  -0.0013  0.4034  1.0000  -0.8298   0.0000   0.0000   0.0000   0.2524
   2.100   0.2751   0.00675   0.00145  -0.0011  0.3931  1.0000  -0.8562   0.0000   0.0000   0.0000   0.2516
   2.200   0.2857   0.00680   0.00148  -0.0010  0.3840  1.0000  -0.8831   0.0000   0.0000   0.0000   0.2509
   2.300   0.2962   0.00688   0.00150  -0.0008  0.3735  1.0000  -0.9099   0.0000   0.0000   0.0000   0.2503
   2.400   0.3068   0.00695   0.00153  -0.0007  0.3639  1.0000  -0.9370   0.0000   0.0000   0.0000   0.2497
   2.500   0.3174   0.00701   0.00157  -0.0006  0.3539  1.0000  -0.9643   0.0000   0.0000   0.0000   0.2491
   2.700   0.3385   0.00716   0.00163  -0.0003  0.3348  1.0000  -1.0195   0.0000   0.0000   0.0000   0.2482
   2.800   0.3491   0.00725   0.00167  -0.0002  0.3246  1.0000  -1.0473   0.0000   0.0000   0.0000   0.2477
   2.900   0.3597   0.00733   0.00171  -0.0000  0.3152  1.0000  -1.0753   0.0000   0.0000   0.0000   0.2473
   3.000   0.3704   0.00740   0.00179   0.0001  0.3056  1.0000  -1.1036   0.0000   0.0000   0.0000   0.2469
   3.100   0.3809   0.00750   0.00184   0.0002  0.2960  1.0000  -1.1325   0.0000   0.0000   0.0000   0.2465
   3.200   0.3917   0.00756   0.00188   0.0003  0.2883  1.0000  -1.1651   0.0000   0.0000   0.0000   0.2462
   3.300   0.4023   0.00764   0.00193   0.0004  0.2796  1.0000  -1.1977   0.0000   0.0000   0.0000   0.2459
   3.400   0.4129   0.00774   0.00199   0.0005  0.2710  1.0000  -1.2375   0.0000   0.0000   0.0000   0.2456
   3.500   0.4237   0.00780   0.00204   0.0007  0.2632  1.0000  -1.2817   0.0000   0.0000   0.0000   0.2453
   3.600   0.4343   0.00790   0.00209   0.0008  0.2545  1.0000  -1.3260   0.0000   0.0000   0.0000   0.2450
   3.700   0.4450   0.00798   0.00215   0.0009  0.2470  1.0000  -1.3708   0.0000   0.0000   0.0000   0.2448
   3.800   0.4557   0.00805   0.00221   0.0010  0.2398  1.0000  -1.4162   0.0000   0.0000   0.0000   0.2445
   3.900   0.4663   0.00816   0.00227   0.0011  0.2320  1.0000  -1.4617   0.0000   0.0000   0.0000   0.2443
   4.000   0.4771   0.00824   0.00234   0.0012  0.2253  1.0000  -1.5107   0.0000   0.0000   0.0000   0.2441
   4.100   0.4878   0.00832   0.00241   0.0013  0.2183  1.0000  -1.5655   0.0000   0.0000   0.0000   0.2439
   4.200   0.4984   0.00843   0.00248   0.0014  0.2107  1.0000  -1.6203   0.0000   0.0000   0.0000   0.2436
   4.300   0.5092   0.00852   0.00255   0.0015  0.2043  1.0000  -1.6760   0.0000   0.0000   0.0000   0.2434
   4.400   0.5199   0.00861   0.00262   0.0016  0.1972  1.0000  -1.7324   0.0000   0.0000   0.0000   0.2433
   4.500   0.5304   0.00874   0.00274   0.0017  0.1893  1.0000  -1.7895   0.0000   0.0000   0.0000   0.2431
   4.600   0.5412   0.00882   0.00282   0.0018  0.1831  1.0000  -1.8472   0.0000   0.0000   0.0000   0.2429
   4.700   0.5519   0.00893   0.00290   0.0019  0.1760  1.0000  -1.9050   0.0000   0.0000   0.0000   0.2427
   4.800   0.5624   0.00907   0.00300   0.0020  0.1684  1.0000  -1.9626   0.0000   0.0000   0.0000   0.2425
   4.900   0.5732   0.00914   0.00308   0.0021  0.1623  1.0000  -2.0218   0.0000   0.0000   0.0000   0.2424
   5.000   0.5838   0.00927   0.00317   0.0021  0.1549  1.0000  -2.0809   0.0000   0.0000   0.0000   0.2422
   5.100   0.5944   0.00939   0.00327   0.0022  0.1485  1.0000  -2.1403   0.0000   0.0000   0.0000   0.2420
   5.200   0.6052   0.00949   0.00336   0.0023  0.1423  1.0000  -2.2007   0.0000   0.0000   0.0000   0.2419
   5.300   0.6157   0.00963   0.00346   0.0024  0.1354  1.0000  -2.2609   0.0000   0.0000   0.0000   0.2417
   5.400   0.6264   0.00974   0.00357   0.0025  0.1300  1.0000  -2.3219   0.0000   0.0000   0.0000   0.2415
   5.500   0.6370   0.00986   0.00367   0.0026  0.1239  1.0000  -2.3834   0.0000   0.0000   0.0000   0.2414
   5.600   0.6474   0.01003   0.00380   0.0027  0.1170  1.0000  -2.4443   0.0000   0.0000   0.0000   0.2412
   5.700   0.6582   0.01012   0.00390   0.0028  0.1122  1.0000  -2.5071   0.0000   0.0000   0.0000   0.2411
   5.800   0.6687   0.01027   0.00402   0.0029  0.1064  1.0000  -2.5923   0.0000   0.0000   0.0000   0.2409
   5.900   0.6792   0.01043   0.00416   0.0030  0.1009  1.0000  -2.7063   0.0000   0.0000   0.0000   0.2408
   6.000   0.6899   0.01054   0.00428   0.0031  0.0965  1.0000  -2.8239   0.0000   0.0000   0.0000   0.2406
   6.100   0.7003   0.01071   0.00445   0.0032  0.0912  1.0000  -2.9475   0.0000   0.0000   0.0000   0.2404
   6.200   0.7108   0.01087   0.00461   0.0033  0.0865  1.0000  -3.0677   0.0000   0.0000   0.0000   0.2403
   6.300   0.7214   0.01099   0.00474   0.0034  0.0824  1.0000  -3.1908   0.0000   0.0000   0.0000   0.2401
   6.400   0.7318   0.01117   0.00489   0.0035  0.0777  1.0000  -3.3135   0.0000   0.0000   0.0000   0.2400
   6.500   0.7422   0.01136   0.00507   0.0036  0.0734  1.0000  -3.4363   0.0000   0.0000   0.0000   0.2398
   6.600   0.7528   0.01149   0.00522   0.0037  0.0699  1.0000  -3.5632   0.0000   0.0000   0.0000   0.2396
   6.700   0.7631   0.01169   0.00540   0.0038  0.0657  1.0000  -3.6893   0.0000   0.0000   0.0000   0.2395
   6.800   0.7733   0.01193   0.00563   0.0039  0.0615  1.0000  -3.8136   0.0000   0.0000   0.0000   0.2393
   6.900   0.7839   0.01207   0.00580   0.0040  0.0584  1.0000  -3.9440   0.0000   0.0000   0.0000   0.2391
   7.000   0.7941   0.01230   0.00600   0.0041  0.0547  1.0000  -4.0731   0.0000   0.0000   0.0000   0.2389
   7.100   0.8040   0.01261   0.00631   0.0043  0.0507  1.0000  -4.1967   0.0000   0.0000   0.0000   0.2387
   7.200   0.8146   0.01275   0.00647   0.0044  0.0483  1.0000  -4.3314   0.0000   0.0000   0.0000   0.2386
   7.300   0.8249   0.01294   0.00667   0.0045  0.0456  1.0000  -4.4659   0.0000   0.0000   0.0000   0.2384
   7.400   0.8346   0.01327   0.00698   0.0046  0.0426  1.0000  -4.5938   0.0000   0.0000   0.0000   0.2382
   7.500   0.8445   0.01358   0.00732   0.0048  0.0407  1.0000  -4.7209   0.0000   0.0000   0.0000   0.2379
   7.600   0.8549   0.01375   0.00753   0.0049  0.0393  1.0000  -4.8582   0.0000   0.0000   0.0000   0.2378
   7.700   0.8652   0.01395   0.00778   0.0050  0.0379  1.0000  -4.9913   0.0000   0.0000   0.0000   0.2376
   7.800   0.8754   0.01417   0.00802   0.0052  0.0365  1.0000  -5.1287   0.0000   0.0000   0.0000   0.2374
   7.900   0.8854   0.01443   0.00829   0.0053  0.0352  1.0000  -5.2658   0.0000   0.0000   0.0000   0.2372
   8.000   0.8948   0.01482   0.00869   0.0055  0.0338  1.0000  -5.3953   0.0000   0.0000   0.0000   0.2369
   8.100   0.9032   0.01546   0.00937   0.0058  0.0323  1.0000  -5.5067   0.0000   0.0000   0.0000   0.2366
   8.200   0.9138   0.01558   0.00953   0.0059  0.0317  1.0000  -5.6559   0.0000   0.0000   0.0000   0.2364
   8.300   0.9242   0.01570   0.00969   0.0060  0.0308  1.0000  -5.8076   0.0000   0.0000   0.0000   0.2363
   8.400   0.9347   0.01582   0.00984   0.0060  0.0297  1.0000  -5.9629   0.0000   0.0000   0.0000   0.2362
   8.500   0.9451   0.01594   0.00997   0.0061  0.0285  1.0000  -6.1223   0.0000   0.0000   0.0000   0.2361
   8.600   0.9552   0.01610   0.01012   0.0061  0.0272  1.0000  -6.2820   0.0000   0.0000   0.0000   0.2360
   8.700   0.9647   0.01643   0.01046   0.0063  0.0260  1.0000  -6.4284   0.0000   0.0000   0.0000   0.2358
   8.800   0.9726   0.01711   0.01119   0.0065  0.0247  1.0000  -6.5433   0.0000   0.0000   0.0000   0.2354
   8.900   0.9825   0.01735   0.01147   0.0067  0.0242  1.0000  -6.6929   0.0000   0.0000   0.0000   0.2353
   9.000   0.9928   0.01749   0.01166   0.0068  0.0237  1.0000  -6.8508   0.0000   0.0000   0.0000   0.2351
   9.100   1.0029   0.01767   0.01188   0.0069  0.0230  1.0000  -7.0070   0.0000   0.0000   0.0000   0.2349
   9.200   1.0129   0.01786   0.01211   0.0070  0.0222  1.0000  -7.1636   0.0000   0.0000   0.0000   0.2348
   9.300   1.0230   0.01804   0.01232   0.0071  0.0213  1.0000  -7.3223   0.0000   0.0000   0.0000   0.2346
   9.400   1.0329   0.01823   0.01255   0.0071  0.0203  1.0000  -7.4868   0.0000   0.0000   0.0000   0.2345
   9.500   1.0422   0.01855   0.01287   0.0072  0.0191  1.0000  -7.6380   0.0000   0.0000   0.0000   0.2343
   9.600   1.0494   0.01931   0.01369   0.0075  0.0176  1.0000  -7.7390   0.0000   0.0000   0.0000   0.2340
   9.700   1.0608   0.01919   0.01361   0.0075  0.0166  1.0000  -7.9145   0.0000   0.0000   0.0000   0.2340
   9.800   1.0718   0.01914   0.01357   0.0075  0.0147  1.0000  -8.0781   0.0000   0.0000   0.0000   0.2339
   9.900   1.0795   0.01980   0.01422   0.0076  0.0118  1.0000  -8.1461   0.0000   0.0000   0.0000   0.2337
  10.000   1.0902   0.01984   0.01428   0.0077  0.0103  1.0000  -8.2781   0.0000   0.0000   0.0000   0.2335
  10.100   1.0999   0.02006   0.01451   0.0078  0.0092  1.0000  -8.4202   0.0000   0.0000   0.0000   0.2334
  10.200   1.1080   0.02060   0.01506   0.0080  0.0082  1.0000  -8.5330   0.0000   0.0000   0.0000   0.2331
  10.300   1.1138   0.02161   0.01617   0.0083  0.0074  1.0000  -8.5771   0.0000   0.0000   0.0000   0.2328
  10.400   1.1229   0.02191   0.01652   0.0084  0.0071  1.0000  -8.7269   0.0000   0.0000   0.0000   0.2326
  10.500   1.1316   0.02229   0.01697   0.0086  0.0069  1.0000  -8.8656   0.0000   0.0000   0.0000   0.2323
  10.600   1.1398   0.02276   0.01749   0.0088  0.0066  1.0000  -8.9952   0.0000   0.0000   0.0000   0.2321
  10.700   1.1476   0.02329   0.01810   0.0090  0.0064  1.0000  -9.1148   0.0000   0.0000   0.0000   0.2318
  10.800   1.1551   0.02387   0.01875   0.0092  0.0062  1.0000  -9.2311   0.0000   0.0000   0.0000   0.2316
  10.900   1.1623   0.02446   0.01941   0.0094  0.0061  1.0000  -9.3481   0.0000   0.0000   0.0000   0.2313
  11.000   1.1694   0.02507   0.02009   0.0096  0.0059  1.0000  -9.4681   0.0000   0.0000   0.0000   0.2310
  11.100   1.1762   0.02570   0.02081   0.0098  0.0058  1.0000  -9.6234   0.0000   0.0000   0.0000   0.2308
  11.200   1.1828   0.02634   0.02153   0.0100  0.0057  1.0000  -9.7774   0.0000   0.0000   0.0000   0.2305
  11.300   1.1891   0.02700   0.02227   0.0102  0.0056  1.0000  -9.9295   0.0000   0.0000   0.0000   0.2302
  11.400   1.1951   0.02769   0.02302   0.0104  0.0055  1.0000  -10.0796   0.0000   0.0000   0.0000   0.2300
  11.500   1.2009   0.02839   0.02380   0.0106  0.0054  1.0000  -10.2274   0.0000   0.0000   0.0000   0.2297
  11.600   1.2063   0.02912   0.02460   0.0108  0.0053  1.0000  -10.3722   0.0000   0.0000   0.0000   0.2295
  11.700   1.2112   0.02988   0.02544   0.0110  0.0052  1.0000  -10.5127   0.0000   0.0000   0.0000   0.2292
  11.800   1.2157   0.03068   0.02631   0.0111  0.0051  1.0000  -10.6476   0.0000   0.0000   0.0000   0.2289
  11.900   1.2196   0.03152   0.02724   0.0113  0.0050  1.0000  -10.7751   0.0000   0.0000   0.0000   0.2287
  12.000   1.2228   0.03243   0.02822   0.0114  0.0050  1.0000  -10.8932   0.0000   0.0000   0.0000   0.2285
  12.100   1.2251   0.03340   0.02927   0.0116  0.0049  1.0000  -10.9999   0.0000   0.0000   0.0000   0.2282
  12.200   1.2264   0.03445   0.03040   0.0116  0.0048  1.0000  -11.0932   0.0000   0.0000   0.0000   0.2280
  12.300   1.2263   0.03556   0.03160   0.0117  0.0048  1.0000  -11.1679   0.0000   0.0000   0.0000   0.2278
  12.400   1.2241   0.03675   0.03286   0.0118  0.0048  1.0000  -11.2179   0.0000   0.0000   0.0000   0.2275
  12.500   1.2206   0.03814   0.03433   0.0115  0.0047  1.0000  -11.2466   0.0000   0.0000   0.0000   0.2276
  12.600   1.2164   0.03987   0.03615   0.0104  0.0047  1.0000  -11.2557   0.0000   0.0000   0.0000   0.2283
  12.700   1.2119   0.04201   0.03838   0.0085  0.0047  1.0000  -11.2490   0.0000   0.0000   0.0000   0.2297
  12.800   1.2073   0.04453   0.04098   0.0061  0.0047  1.0000  -11.2288   0.0000   0.0000   0.0000   0.2315
  12.900   1.2024   0.04735   0.04388   0.0034  0.0047  1.0000  -11.1957   0.0000   0.0000   0.0000   0.2335
  13.000   1.1969   0.05038   0.04700   0.0006  0.0047  1.0000  -11.1494   0.0000   0.0000   0.0000   0.2356
  13.100   1.1907   0.05354   0.05024  -0.0021  0.0047  1.0000  -11.0897   0.0000   0.0000   0.0000   0.2377
  13.200   1.1838   0.05681   0.05358  -0.0047  0.0047  1.0000  -11.0172   0.0000   0.0000   0.0000   0.2398
  13.300   1.1762   0.06014   0.05698  -0.0072  0.0047  1.0000  -10.9341   0.0000   0.0000   0.0000   0.2417
  13.400   1.1680   0.06354   0.06044  -0.0095  0.0048  1.0000  -10.8393   0.0000   0.0000   0.0000   0.2437
  13.500   1.1590   0.06696   0.06392  -0.0118  0.0048  1.0000  -10.7329   0.0000   0.0000   0.0000   0.2456
  13.600   1.1496   0.07043   0.06745  -0.0140  0.0048  1.0000  -10.6171   0.0000   0.0000   0.0000   0.2474
  13.700   1.1397   0.07398   0.07106  -0.0162  0.0049  1.0000  -10.4914   0.0000   0.0000   0.0000   0.2493
  13.800   1.1295   0.07759   0.07473  -0.0183  0.0049  1.0000  -10.3562   0.0000   0.0000   0.0000   0.2513
  13.900   1.1191   0.08123   0.07842  -0.0205  0.0050  1.0000  -10.2149   0.0000   0.0000   0.0000   0.2532
  14.000   1.1084   0.08484   0.08207  -0.0225  0.0050  1.0000  -10.0684   0.0000   0.0000   0.0000   0.2551
  14.100   1.0971   0.08861   0.08589  -0.0246  0.0051  1.0000  -9.9059   0.0000   0.0000   0.0000   0.2572
  14.200   1.0859   0.09241   0.08974  -0.0267  0.0051  1.0000  -9.7406   0.0000   0.0000   0.0000   0.2593
  14.300   1.0746   0.09629   0.09367  -0.0288  0.0052  1.0000  -9.5674   0.0000   0.0000   0.0000   0.2614
  14.400   1.0627   0.10036   0.09779  -0.0310  0.0052  1.0000  -9.3774   0.0000   0.0000   0.0000   0.2638
  14.500   1.0514   0.10434   0.10181  -0.0332  0.0053  1.0000  -9.1932   0.0000   0.0000   0.0000   0.2661
  14.600   1.0390   0.10866   0.10619  -0.0355  0.0054  1.0000  -8.9790   0.0000   0.0000   0.0000   0.2687
  14.700   1.0272   0.11290   0.11047  -0.0377  0.0054  1.0000  -8.7712   0.0000   0.0000   0.0000   0.2712
  14.800   1.0146   0.11748   0.11510  -0.0401  0.0055  1.0000  -8.5347   0.0000   0.0000   0.0000   0.2740
  14.900   1.0020   0.12220   0.11985  -0.0426  0.0056  1.0000  -8.2879   0.0000   0.0000   0.0000   0.2770
  15.000   0.9886   0.12723   0.12494  -0.0452  0.0057  1.0000  -8.0123   0.0000   0.0000   0.0000   0.2802


