xflr5 v6.61

 Calculated polar for: SG6043

 1 1 Reynolds number fixed          Mach number fixed         

 xtrf =   1.000 (top)        1.000 (bottom)
 Mach =   0.000     Re =     0.025 e 6     Ncrit =   9.000

  alpha     CL        CD       CDp       Cm    Top Xtr Bot Xtr   Cpmin    Chinge    XCp    
 ------- -------- --------- --------- -------- ------- ------- -------- --------- ---------
 -10.000  -0.3220   0.14980   0.14009  -0.0266  1.0000  0.3178  -1.1977   0.0000   0.0000   0.0000   0.1557
  -9.900  -0.3320   0.15137   0.14173  -0.0258  1.0000  0.3186  -1.2169   0.0000   0.0000   0.0000   0.1609
  -9.800  -0.3012   0.14254   0.13284  -0.0261  1.0000  0.3271  -1.1570   0.0000   0.0000   0.0000   0.1507
  -9.700  -0.2977   0.14115   0.13146  -0.0255  1.0000  0.3329  -1.1482   0.0000   0.0000   0.0000   0.1515
  -9.600  -0.2995   0.14083   0.13118  -0.0249  1.0000  0.3382  -1.1501   0.0000   0.0000   0.0000   0.1543
  -9.500  -0.3063   0.14158   0.13199  -0.0242  1.0000  0.3424  -1.1618   0.0000   0.0000   0.0000   0.1591
  -9.400  -0.3167   0.14308   0.13356  -0.0233  1.0000  0.3447  -1.1800   0.0000   0.0000   0.0000   0.1651
  -9.300  -0.3279   0.14472   0.13529  -0.0223  1.0000  0.3458  -1.1997   0.0000   0.0000   0.0000   0.1712
  -9.200  -0.3011   0.13731   0.12783  -0.0227  1.0000  0.3536  -1.1497   0.0000   0.0000   0.0000   0.1627
  -9.100  -0.2964   0.13574   0.12623  -0.0221  1.0000  0.3604  -1.1382   0.0000   0.0000   0.0000   0.1634
  -9.000  -0.2994   0.13563   0.12616  -0.0213  1.0000  0.3665  -1.1411   0.0000   0.0000   0.0000   0.1671
  -8.900  -0.3087   0.13676   0.12736  -0.0203  1.0000  0.3706  -1.1557   0.0000   0.0000   0.0000   0.1732
  -8.700  -0.3057   0.13376   0.12445  -0.0193  1.0000  0.3783  -1.1480   0.0000   0.0000   0.0000   0.1760
  -8.600  -0.2957   0.13124   0.12191  -0.0188  1.0000  0.3871  -1.1263   0.0000   0.0000   0.0000   0.1751
  -8.500  -0.2990   0.13115   0.12187  -0.0179  1.0000  0.3940  -1.1287   0.0000   0.0000   0.0000   0.1793
  -8.400  -0.3099   0.13247   0.12327  -0.0166  1.0000  0.3984  -1.1446   0.0000   0.0000   0.0000   0.1861
  -8.300  -0.3233   0.13423   0.12511  -0.0152  1.0000  0.4002  -1.1649   0.0000   0.0000   0.0000   0.1934
  -8.200  -0.2971   0.12785   0.11868  -0.0158  1.0000  0.4105  -1.1180   0.0000   0.0000   0.0000   0.1861
  -8.100  -0.2960   0.12704   0.11789  -0.0149  1.0000  0.4191  -1.1121   0.0000   0.0000   0.0000   0.1890
  -8.000  -0.3061   0.12810   0.11903  -0.0135  1.0000  0.4250  -1.1250   0.0000   0.0000   0.0000   0.1958
  -7.900  -0.3204   0.12991   0.12093  -0.0119  1.0000  0.4275  -1.1454   0.0000   0.0000   0.0000   0.2036
  -7.800  -0.2954   0.12409   0.11506  -0.0126  1.0000  0.4386  -1.1017   0.0000   0.0000   0.0000   0.1972
  -7.700  -0.2962   0.12360   0.11460  -0.0115  1.0000  0.4481  -1.0984   0.0000   0.0000   0.0000   0.2010
  -7.600  -0.3092   0.12511   0.11619  -0.0097  1.0000  0.4535  -1.1151   0.0000   0.0000   0.0000   0.2090
  -7.500  -0.3248   0.12700   0.11818  -0.0078  1.0000  0.4555  -1.1361   0.0000   0.0000   0.0000   0.2170
  -7.400  -0.2923   0.12032   0.11142  -0.0090  1.0000  0.4728  -1.0808   0.0000   0.0000   0.0000   0.2093
  -7.300  -0.3039   0.12153   0.11270  -0.0072  1.0000  0.4802  -1.0940   0.0000   0.0000   0.0000   0.2171
  -7.200  -0.3204   0.12349   0.11477  -0.0050  1.0000  0.4828  -1.1153   0.0000   0.0000   0.0000   0.2257
  -7.100  -0.2903   0.11749   0.10869  -0.0061  1.0000  0.5016  -1.0648   0.0000   0.0000   0.0000   0.2192
  -7.000  -0.3047   0.11910   0.11039  -0.0039  1.0000  0.5085  -1.0814   0.0000   0.0000   0.0000   0.2282
  -6.900  -0.2868   0.11513   0.10640  -0.0044  1.0000  0.5220  -1.0509   0.0000   0.0000   0.0000   0.2252
  -6.800  -0.2933   0.11557   0.10689  -0.0026  1.0000  0.5338  -1.0548   0.0000   0.0000   0.0000   0.2321
  -6.700  -0.2929   0.11431   0.10569  -0.0017  1.0000  0.5424  -1.0505   0.0000   0.0000   0.0000   0.2353
  -6.600  -0.2862   0.11285   0.10422  -0.0008  1.0000  0.5597  -1.0346   0.0000   0.0000   0.0000   0.2379
  -6.500  -0.3051   0.11503   0.10650   0.0021  1.0000  0.5645  -1.0563   0.0000   0.0000   0.0000   0.2484
  -6.400  -0.2831   0.11085   0.10229   0.0014  1.0000  0.5878  -1.0195   0.0000   0.0000   0.0000   0.2458
  -6.300  -0.2699   0.10806   0.09949   0.0013  1.0000  0.6055  -0.9965   0.0000   0.0000   0.0000   0.2453
  -6.200  -0.2852   0.10975   0.10126   0.0043  1.0000  0.6172  -1.0111   0.0000   0.0000   0.0000   0.2565
  -6.100  -0.0124   0.08111   0.07157  -0.0375  1.0000  1.0000  -0.8312   0.0000   0.0000   0.0000  -3.0214
  -6.000  -0.0115   0.08047   0.07096  -0.0371  1.0000  1.0000  -0.8338   0.0000   0.0000   0.0000  -3.2297
  -5.900  -0.0107   0.07985   0.07037  -0.0367  1.0000  1.0000  -0.8363   0.0000   0.0000   0.0000  -3.4554
  -5.800  -0.0099   0.07922   0.06978  -0.0364  1.0000  1.0000  -0.8388   0.0000   0.0000   0.0000  -3.7004
  -5.700  -0.0092   0.07861   0.06920  -0.0360  1.0000  1.0000  -0.8412   0.0000   0.0000   0.0000  -3.9668
  -5.600  -0.0085   0.07800   0.06863  -0.0356  1.0000  1.0000  -0.8436   0.0000   0.0000   0.0000  -4.2569
  -5.500  -0.0079   0.07740   0.06806  -0.0352  1.0000  1.0000  -0.8460   0.0000   0.0000   0.0000  -4.5716
  -5.400  -0.0072   0.07681   0.06750  -0.0348  1.0000  1.0000  -0.8483   0.0000   0.0000   0.0000  -4.9126
  -5.300  -0.0067   0.07622   0.06695  -0.0344  1.0000  1.0000  -0.8506   0.0000   0.0000   0.0000  -5.2821
  -5.200  -0.0062   0.07564   0.06640  -0.0339  1.0000  1.0000  -0.8529   0.0000   0.0000   0.0000  -5.6825
  -5.100  -0.0057   0.07506   0.06585  -0.0335  1.0000  1.0000  -0.8551   0.0000   0.0000   0.0000  -6.1156
  -5.000  -0.0052   0.07449   0.06532  -0.0331  1.0000  1.0000  -0.8574   0.0000   0.0000   0.0000  -6.5802
  -4.900  -0.0048   0.07392   0.06475  -0.0327  1.0000  1.0000  -0.8595   0.0000   0.0000   0.0000  -7.0740
  -4.800  -0.0044   0.07336   0.06423  -0.0322  1.0000  1.0000  -0.8617   0.0000   0.0000   0.0000  -7.6003
  -4.700  -0.0041   0.07280   0.06370  -0.0318  1.0000  1.0000  -0.8639   0.0000   0.0000   0.0000  -8.1551
  -4.600  -0.0037   0.07225   0.06319  -0.0314  1.0000  1.0000  -0.8660   0.0000   0.0000   0.0000  -8.7321
  -4.500  -0.0035   0.07170   0.06267  -0.0309  1.0000  1.0000  -0.8682   0.0000   0.0000   0.0000  -9.3178
  -4.400  -0.0032   0.07116   0.06216  -0.0305  1.0000  1.0000  -0.8703   0.0000   0.0000   0.0000  -9.9008
  -4.300  -0.0030   0.07062   0.06166  -0.0301  1.0000  1.0000  -0.8725   0.0000   0.0000   0.0000  -10.4629
  -4.200  -0.0028   0.07008   0.06116  -0.0296  1.0000  1.0000  -0.8746   0.0000   0.0000   0.0000  -10.9809
  -4.100  -0.0027   0.06955   0.06066  -0.0292  1.0000  1.0000  -0.8767   0.0000   0.0000   0.0000  -11.4274
  -4.000  -0.0053   0.06915   0.06031  -0.0280  1.0000  0.9989  -0.8798   0.0000   0.0000   0.0000  -5.4495
  -3.900  -0.0252   0.06987   0.06115  -0.0226  1.0000  0.9899  -0.8915   0.0000   0.0000   0.0000  -0.7196
  -3.800  -0.0435   0.07034   0.06173  -0.0178  1.0000  0.9792  -0.9022   0.0000   0.0000   0.0000  -0.1993
  -3.700  -0.0624   0.07098   0.06247  -0.0129  1.0000  0.9679  -0.9139   0.0000   0.0000   0.0000   0.0161
  -3.600  -0.0815   0.07164   0.06324  -0.0082  1.0000  0.9563  -0.9262   0.0000   0.0000   0.0000   0.1300
  -3.500  -0.0984   0.07197   0.06367  -0.0041  1.0000  0.9420  -0.9372   0.0000   0.0000   0.0000   0.1923
  -3.400  -0.1187   0.07286   0.06466   0.0006  1.0000  0.9318  -0.9512   0.0000   0.0000   0.0000   0.2428
  -3.300  -0.1340   0.07293   0.06483   0.0040  1.0000  0.9146  -0.9621   0.0000   0.0000   0.0000   0.2688
  -3.200  -0.1533   0.07367   0.06569   0.0081  1.0000  0.9024  -0.9761   0.0000   0.0000   0.0000   0.2941
  -3.100  -0.1699   0.07389   0.06600   0.0115  1.0000  0.8865  -0.9889   0.0000   0.0000   0.0000   0.3097
  -3.000  -0.1861   0.07414   0.06634   0.0145  1.0000  0.8686  -1.0018   0.0000   0.0000   0.0000   0.3210
  -2.900  -0.2063   0.07480   0.06710   0.0185  1.0000  0.8585  -1.0173   0.0000   0.0000   0.0000   0.3336
  -2.800  -0.2211   0.07479   0.06716   0.0208  1.0000  0.8382  -1.0304   0.0000   0.0000   0.0000   0.3387
  -2.700  -0.2425   0.07558   0.06806   0.0249  1.0000  0.8310  -1.0470   0.0000   0.0000   0.0000   0.3480
  -2.600  -0.2565   0.07535   0.06791   0.0267  1.0000  0.8092  -1.0608   0.0000   0.0000   0.0000   0.3498
  -2.500  -0.2717   0.07536   0.06798   0.0287  1.0000  0.7894  -1.0755   0.0000   0.0000   0.0000   0.3517
  -2.400  -0.2918   0.07575   0.06847   0.0322  1.0000  0.7815  -1.0924   0.0000   0.0000   0.0000   0.3566
  -2.300  -0.3062   0.07555   0.06835   0.0337  1.0000  0.7609  -1.1075   0.0000   0.0000   0.0000   0.3569
  -2.200  -0.3267   0.07587   0.06876   0.0372  1.0000  0.7550  -1.1247   0.0000   0.0000   0.0000   0.3610
  -2.100  -0.3405   0.07555   0.06851   0.0386  1.0000  0.7346  -1.1404   0.0000   0.0000   0.0000   0.3604
  -1.600  -0.1851   0.06187   0.05315  -0.0520  1.0000  0.2895  -1.4420   0.0000   0.0000   0.0000  -0.0349
  -1.500  -0.1760   0.06046   0.05175  -0.0524  1.0000  0.2839  -1.4347   0.0000   0.0000   0.0000  -0.0517
  -1.400  -0.1328   0.05803   0.04872  -0.0625  1.0000  0.2627  -1.4665   0.0000   0.0000   0.0000  -0.2260
  -1.300  -0.1213   0.05677   0.04742  -0.0635  1.0000  0.2600  -1.4579   0.0000   0.0000   0.0000  -0.2789
  -1.200  -0.1066   0.05557   0.04609  -0.0653  1.0000  0.2579  -1.4513   0.0000   0.0000   0.0000  -0.3685
  -1.100  -0.0900   0.05443   0.04479  -0.0675  1.0000  0.2570  -1.4445   0.0000   0.0000   0.0000  -0.5063
  -1.000  -0.0727   0.05336   0.04349  -0.0698  1.0000  0.2572  -1.4365   0.0000   0.0000   0.0000  -0.7186
  -0.900  -0.0550   0.05238   0.04229  -0.0721  1.0000  0.2580  -1.4281   0.0000   0.0000   0.0000  -1.0720
  -0.800  -0.0375   0.05146   0.04114  -0.0742  1.0000  0.2589  -1.4193   0.0000   0.0000   0.0000  -1.7449
  -0.700  -0.0203   0.05061   0.04005  -0.0762  1.0000  0.2596  -1.4101   0.0000   0.0000   0.0000  -3.5236
  -0.600  -0.0037   0.04982   0.03901  -0.0779  1.0000  0.2602  -1.4003   0.0000   0.0000   0.0000  -20.9561
  -0.500   0.0133   0.04916   0.03805  -0.0796  1.0000  0.2621  -1.3902   0.0000   0.0000   0.0000   6.2786
  -0.400   0.0273   0.04847   0.03719  -0.0806  1.0000  0.2674  -1.3731   0.0000   0.0000   0.0000   3.2220
  -0.300   0.0371   0.04796   0.03668  -0.0807  1.0000  0.2749  -1.3493   0.0000   0.0000   0.0000   2.4370
  -0.200   0.0507   0.04755   0.03607  -0.0815  1.0000  0.2833  -1.3319   0.0000   0.0000   0.0000   1.8652
  -0.100   0.0671   0.04717   0.03532  -0.0829  1.0000  0.2906  -1.3204   0.0000   0.0000   0.0000   1.4899
   0.000   0.0785   0.04661   0.03473  -0.0832  1.0000  0.2987  -1.3003   0.0000   0.0000   0.0000   1.3119
   0.100   0.0904   0.04630   0.03431  -0.0835  1.0000  0.3123  -1.2808   0.0000   0.0000   0.0000   1.1757
   0.200   0.1023   0.04591   0.03386  -0.0838  1.0000  0.3276  -1.2771   0.0000   0.0000   0.0000   1.0710
   0.300   0.1156   0.04563   0.03339  -0.0843  1.0000  0.3445  -1.2779   0.0000   0.0000   0.0000   0.9805
   0.400   0.1267   0.04522   0.03304  -0.0844  1.0000  0.3618  -1.2738   0.0000   0.0000   0.0000   0.9162
   0.500   0.1381   0.04491   0.03278  -0.0844  1.0000  0.3894  -1.2680   0.0000   0.0000   0.0000   0.8616
   0.600   0.1500   0.04459   0.03251  -0.0845  1.0000  0.4243  -1.2628   0.0000   0.0000   0.0000   0.8132
   0.700   0.1615   0.04416   0.03234  -0.0843  1.0000  0.4654  -1.2588   0.0000   0.0000   0.0000   0.7715
   0.800   0.1717   0.04363   0.03231  -0.0835  1.0000  0.5411  -1.2557   0.0000   0.0000   0.0000   0.7358
   0.900   0.1746   0.04245   0.03215  -0.0805  1.0000  0.6806  -1.2659   0.0000   0.0000   0.0000   0.7101
   1.000   0.1649   0.04120   0.03152  -0.0765  1.0000  0.8796  -1.2782   0.0000   0.0000   0.0000   0.7128
   1.200   0.1993   0.04182   0.03015  -0.0801  1.0000  1.0000  -1.2659   0.0000   0.0000   0.0000   0.6507
   1.300   0.2079   0.04223   0.03028  -0.0802  1.0000  1.0000  -1.2310   0.0000   0.0000   0.0000   0.6339
   1.400   0.2162   0.04265   0.03045  -0.0802  1.0000  1.0000  -1.1938   0.0000   0.0000   0.0000   0.6191
   1.500   0.2243   0.04307   0.03067  -0.0802  1.0000  1.0000  -1.1554   0.0000   0.0000   0.0000   0.6056
   1.600   0.2322   0.04351   0.03092  -0.0802  1.0000  1.0000  -1.1161   0.0000   0.0000   0.0000   0.5933
   1.700   0.2400   0.04395   0.03119  -0.0803  1.0000  1.0000  -1.0765   0.0000   0.0000   0.0000   0.5820
   1.800   0.2478   0.04440   0.03149  -0.0803  1.0000  1.0000  -1.0366   0.0000   0.0000   0.0000   0.5715
   1.900   0.2554   0.04486   0.03180  -0.0804  1.0000  1.0000  -0.9967   0.0000   0.0000   0.0000   0.5618
   2.000   0.2629   0.04533   0.03213  -0.0804  1.0000  1.0000  -0.9568   0.0000   0.0000   0.0000   0.5528
   2.100   0.2703   0.04580   0.03249  -0.0804  1.0000  1.0000  -0.9171   0.0000   0.0000   0.0000   0.5443
   2.200   0.2777   0.04629   0.03285  -0.0805  1.0000  1.0000  -0.8776   0.0000   0.0000   0.0000   0.5365
   2.300   0.2850   0.04678   0.03324  -0.0805  1.0000  1.0000  -0.8385   0.0000   0.0000   0.0000   0.5291
   2.400   0.2922   0.04728   0.03362  -0.0806  1.0000  1.0000  -0.8000   0.0000   0.0000   0.0000   0.5221
   2.500   0.2993   0.04780   0.03403  -0.0806  1.0000  1.0000  -0.7614   0.0000   0.0000   0.0000   0.5156
   2.600   0.3063   0.04832   0.03446  -0.0807  1.0000  1.0000  -0.7230   0.0000   0.0000   0.0000   0.5094
   2.700   0.3133   0.04885   0.03491  -0.0807  1.0000  1.0000  -0.6851   0.0000   0.0000   0.0000   0.5036
   2.800   0.3202   0.04939   0.03537  -0.0808  1.0000  1.0000  -0.6475   0.0000   0.0000   0.0000   0.4981
   2.900   0.3271   0.04994   0.03584  -0.0808  1.0000  1.0000  -0.6104   0.0000   0.0000   0.0000   0.4928
   3.000   0.3338   0.05050   0.03634  -0.0809  1.0000  1.0000  -0.5737   0.0000   0.0000   0.0000   0.4879
   3.100   0.3405   0.05107   0.03684  -0.0810  1.0000  1.0000  -0.5578   0.0000   0.0000   0.0000   0.4832
   3.200   0.3471   0.05165   0.03736  -0.0810  1.0000  1.0000  -0.5635   0.0000   0.0000   0.0000   0.4787
   3.300   0.3537   0.05225   0.03790  -0.0811  1.0000  1.0000  -0.5692   0.0000   0.0000   0.0000   0.4745
   3.400   0.3602   0.05285   0.03844  -0.0812  1.0000  1.0000  -0.5747   0.0000   0.0000   0.0000   0.4705
   3.500   0.3666   0.05346   0.03901  -0.0813  1.0000  1.0000  -0.5801   0.0000   0.0000   0.0000   0.4666
   3.600   0.3730   0.05409   0.03959  -0.0814  1.0000  1.0000  -0.5854   0.0000   0.0000   0.0000   0.4630
   3.700   0.3793   0.05472   0.04018  -0.0815  1.0000  1.0000  -0.5915   0.0000   0.0000   0.0000   0.4595
   3.800   0.3855   0.05537   0.04079  -0.0816  1.0000  1.0000  -0.5976   0.0000   0.0000   0.0000   0.4561
   3.900   0.3917   0.05603   0.04140  -0.0817  1.0000  1.0000  -0.6036   0.0000   0.0000   0.0000   0.4530
   4.000   0.3978   0.05670   0.04203  -0.0818  1.0000  1.0000  -0.6096   0.0000   0.0000   0.0000   0.4499
   4.100   0.4039   0.05738   0.04268  -0.0819  1.0000  1.0000  -0.6153   0.0000   0.0000   0.0000   0.4470
   4.200   0.4099   0.05808   0.04335  -0.0820  1.0000  1.0000  -0.6210   0.0000   0.0000   0.0000   0.4443
   4.300   0.4158   0.05878   0.04403  -0.0822  1.0000  1.0000  -0.6273   0.0000   0.0000   0.0000   0.4416
   4.400   0.4216   0.05950   0.04473  -0.0823  1.0000  1.0000  -0.6339   0.0000   0.0000   0.0000   0.4391
   4.500   0.4274   0.06023   0.04544  -0.0825  1.0000  1.0000  -0.6403   0.0000   0.0000   0.0000   0.4367
   4.600   0.4331   0.06098   0.04617  -0.0826  1.0000  1.0000  -0.6467   0.0000   0.0000   0.0000   0.4344
   4.700   0.4388   0.06173   0.04691  -0.0828  1.0000  1.0000  -0.6529   0.0000   0.0000   0.0000   0.4322
   4.800   0.4444   0.06250   0.04767  -0.0830  1.0000  1.0000  -0.6590   0.0000   0.0000   0.0000   0.4301
   4.900   0.4499   0.06329   0.04845  -0.0831  1.0000  1.0000  -0.6649   0.0000   0.0000   0.0000   0.4281
   5.000   0.4554   0.06408   0.04924  -0.0833  1.0000  1.0000  -0.6714   0.0000   0.0000   0.0000   0.4262
   5.100   0.4608   0.06489   0.05004  -0.0835  1.0000  1.0000  -0.6784   0.0000   0.0000   0.0000   0.4243
   5.200   0.4662   0.06572   0.05087  -0.0837  1.0000  1.0000  -0.6853   0.0000   0.0000   0.0000   0.4226
   5.300   0.4714   0.06655   0.05170  -0.0839  1.0000  1.0000  -0.6920   0.0000   0.0000   0.0000   0.4209
   5.400   0.4767   0.06741   0.05256  -0.0842  1.0000  1.0000  -0.6985   0.0000   0.0000   0.0000   0.4193
   5.500   0.4818   0.06827   0.05343  -0.0844  1.0000  1.0000  -0.7050   0.0000   0.0000   0.0000   0.4178
   5.600   0.4869   0.06915   0.05432  -0.0846  1.0000  1.0000  -0.7112   0.0000   0.0000   0.0000   0.4163
   5.700   0.4920   0.07005   0.05523  -0.0849  1.0000  1.0000  -0.7178   0.0000   0.0000   0.0000   0.4149
   5.800   0.4970   0.07096   0.05615  -0.0851  1.0000  1.0000  -0.7253   0.0000   0.0000   0.0000   0.4136
   5.900   0.5019   0.07189   0.05709  -0.0854  1.0000  1.0000  -0.7326   0.0000   0.0000   0.0000   0.4124
   6.000   0.5068   0.07283   0.05805  -0.0857  1.0000  1.0000  -0.7397   0.0000   0.0000   0.0000   0.4112
   6.100   0.5116   0.07379   0.05902  -0.0860  1.0000  1.0000  -0.7467   0.0000   0.0000   0.0000   0.4100
   6.200   0.5163   0.07476   0.06001  -0.0863  1.0000  1.0000  -0.7535   0.0000   0.0000   0.0000   0.4089
   6.300   0.5210   0.07575   0.06101  -0.0866  1.0000  1.0000  -0.7601   0.0000   0.0000   0.0000   0.4079
   6.400   0.5257   0.07675   0.06203  -0.0869  1.0000  1.0000  -0.7665   0.0000   0.0000   0.0000   0.4069
   6.500   0.5303   0.07777   0.06307  -0.0872  1.0000  1.0000  -0.7728   0.0000   0.0000   0.0000   0.4060
   6.600   0.5348   0.07881   0.06413  -0.0876  1.0000  1.0000  -0.7799   0.0000   0.0000   0.0000   0.4052
   6.700   0.5393   0.07986   0.06521  -0.0879  1.0000  1.0000  -0.7875   0.0000   0.0000   0.0000   0.4043
   6.800   0.5437   0.08092   0.06630  -0.0883  1.0000  1.0000  -0.7949   0.0000   0.0000   0.0000   0.4035
   6.900   0.5481   0.08201   0.06741  -0.0887  1.0000  1.0000  -0.8021   0.0000   0.0000   0.0000   0.4028
   7.000   0.5524   0.08310   0.06853  -0.0890  1.0000  1.0000  -0.8092   0.0000   0.0000   0.0000   0.4021
   7.100   0.5567   0.08422   0.06968  -0.0894  1.0000  1.0000  -0.8160   0.0000   0.0000   0.0000   0.4015
   7.200   0.5610   0.08535   0.07084  -0.0898  1.0000  1.0000  -0.8226   0.0000   0.0000   0.0000   0.4009
   7.300   0.5652   0.08650   0.07202  -0.0902  1.0000  1.0000  -0.8290   0.0000   0.0000   0.0000   0.4003
   7.400   0.5693   0.08766   0.07321  -0.0907  1.0000  1.0000  -0.8352   0.0000   0.0000   0.0000   0.3998
   7.500   0.5734   0.08884   0.07442  -0.0911  1.0000  1.0000  -0.8412   0.0000   0.0000   0.0000   0.3993
   7.600   0.5775   0.09003   0.07565  -0.0915  1.0000  1.0000  -0.8470   0.0000   0.0000   0.0000   0.3988
   7.700   0.5815   0.09124   0.07690  -0.0920  1.0000  1.0000  -0.8525   0.0000   0.0000   0.0000   0.3984
   7.800   0.5855   0.09246   0.07816  -0.0925  1.0000  1.0000  -0.8578   0.0000   0.0000   0.0000   0.3980
   7.900   0.5922   0.09391   0.07967  -0.0937  0.9969  1.0000  -0.8648   0.0000   0.0000   0.0000   0.3981
   8.000   0.6074   0.09644   0.08229  -0.0963  0.9901  1.0000  -0.8835   0.0000   0.0000   0.0000   0.3984
   8.100   0.6165   0.09802   0.08396  -0.0982  0.9808  1.0000  -0.8944   0.0000   0.0000   0.0000   0.3990
   8.200   0.6351   0.10139   0.08734  -0.1012  0.9741  1.0000  -0.9186   0.0000   0.0000   0.0000   0.3990
   8.300   0.6350   0.10165   0.08771  -0.1015  0.9663  1.0000  -0.9180   0.0000   0.0000   0.0000   0.3994
   8.400   0.6571   0.10533   0.09142  -0.1052  0.9555  1.0000  -0.9456   0.0000   0.0000   0.0000   0.3995
   8.500   0.6552   0.10539   0.09157  -0.1050  0.9475  1.0000  -0.9428   0.0000   0.0000   0.0000   0.3996
   8.600   0.6788   0.10924   0.09547  -0.1089  0.9344  1.0000  -0.9719   0.0000   0.0000   0.0000   0.3996
   8.700   0.6754   0.10928   0.09558  -0.1084  0.9291  1.0000  -0.9672   0.0000   0.0000   0.0000   0.3996
   8.800   0.6839   0.11075   0.09712  -0.1097  0.9179  1.0000  -0.9775   0.0000   0.0000   0.0000   0.3994
   8.900   0.7025   0.11447   0.10087  -0.1126  0.9103  1.0000  -1.0042   0.0000   0.0000   0.0000   0.3992
   9.000   0.6971   0.11404   0.10052  -0.1118  0.9032  1.0000  -0.9978   0.0000   0.0000   0.0000   0.3992
   9.100   0.7211   0.11788   0.10443  -0.1154  0.8877  1.0000  -1.0314   0.0000   0.0000   0.0000   0.3987
   9.200   0.7180   0.11821   0.10481  -0.1149  0.8827  1.0000  -1.0279   0.0000   0.0000   0.0000   0.3986
   9.300   0.7245   0.11924   0.10592  -0.1157  0.8691  1.0000  -1.0375   0.0000   0.0000   0.0000   0.3982
   9.400   0.7449   0.12341   0.11014  -0.1187  0.8613  1.0000  -1.0657   0.0000   0.0000   0.0000   0.3978
   9.500   0.7391   0.12330   0.11008  -0.1179  0.8581  1.0000  -1.0587   0.0000   0.0000   0.0000   0.3979
   9.600   0.7398   0.12382   0.11066  -0.1179  0.8487  1.0000  -1.0617   0.0000   0.0000   0.0000   0.3976
   9.700   0.7666   0.12875   0.11566  -0.1216  0.8364  1.0000  -1.1035   0.0000   0.0000   0.0000   0.3968
   9.800   0.7586   0.12824   0.11520  -0.1205  0.8327  1.0000  -1.0927   0.0000   0.0000   0.0000   0.3969
   9.900   0.7624   0.12893   0.11595  -0.1208  0.8196  1.0000  -1.1001   0.0000   0.0000   0.0000   0.3964
  10.000   0.7808   0.13276   0.11994  -0.1232  0.8099  1.0000  -1.1285   0.0000   0.0000   0.0000   0.3957
  10.100   0.7744   0.13245   0.11967  -0.1223  0.8044  1.0000  -1.1198   0.0000   0.0000   0.0000   0.3957
  10.200   0.7782   0.13361   0.12089  -0.1227  0.7963  1.0000  -1.1261   0.0000   0.0000   0.0000   0.3954
  10.300   0.7943   0.13690   0.12425  -0.1248  0.7884  1.0000  -1.1503   0.0000   0.0000   0.0000   0.3948
  10.400   0.8021   0.13963   0.12702  -0.1260  0.7847  1.0000  -1.1614   0.0000   0.0000   0.0000   0.3946
  10.500   0.7952   0.13928   0.12671  -0.1252  0.7806  1.0000  -1.1510   0.0000   0.0000   0.0000   0.3947
  10.600   0.7985   0.14009   0.12758  -0.1254  0.7697  1.0000  -1.1560   0.0000   0.0000   0.0000   0.3943
  10.700   0.8190   0.14448   0.13204  -0.1278  0.7592  1.0000  -1.1858   0.0000   0.0000   0.0000   0.3932
  10.800   0.8111   0.14383   0.13142  -0.1268  0.7540  1.0000  -1.1735   0.0000   0.0000   0.0000   0.3934
  10.900   0.8181   0.14516   0.13282  -0.1274  0.7419  1.0000  -1.1836   0.0000   0.0000   0.0000   0.3927
  11.000   0.8412   0.15053   0.13826  -0.1302  0.7347  1.0000  -1.2199   0.0000   0.0000   0.0000   0.3917
  11.100   0.8368   0.15089   0.13865  -0.1299  0.7335  1.0000  -1.2125   0.0000   0.0000   0.0000   0.3920
  11.200   0.8318   0.15096   0.13875  -0.1295  0.7309  1.0000  -1.2045   0.0000   0.0000   0.0000   0.3923
  11.300   0.8300   0.15135   0.13918  -0.1294  0.7252  1.0000  -1.2018   0.0000   0.0000   0.0000   0.3923
  11.400   0.8370   0.15310   0.14099  -0.1301  0.7172  1.0000  -1.2133   0.0000   0.0000   0.0000   0.3918
  11.500   0.8584   0.15834   0.14631  -0.1325  0.7091  1.0000  -1.2472   0.0000   0.0000   0.0000   0.3906
  11.600   0.8503   0.15761   0.14560  -0.1317  0.7062  1.0000  -1.2336   0.0000   0.0000   0.0000   0.3911
  11.700   0.8483   0.15752   0.14555  -0.1314  0.6970  1.0000  -1.2306   0.0000   0.0000   0.0000   0.3909
  11.800   0.8746   0.16330   0.15141  -0.1339  0.6841  1.0000  -1.2726   0.0000   0.0000   0.0000   0.3890
  11.900   0.8676   0.16284   0.15097  -0.1333  0.6819  1.0000  -1.2598   0.0000   0.0000   0.0000   0.3895
  12.000   0.8633   0.16268   0.15084  -0.1330  0.6769  1.0000  -1.2518   0.0000   0.0000   0.0000   0.3898
  12.100   0.8659   0.16382   0.15202  -0.1334  0.6709  1.0000  -1.2545   0.0000   0.0000   0.0000   0.3895
  12.200   0.8741   0.16612   0.15439  -0.1342  0.6653  1.0000  -1.2657   0.0000   0.0000   0.0000   0.3890
  12.300   0.8898   0.17058   0.15893  -0.1359  0.6606  1.0000  -1.2875   0.0000   0.0000   0.0000   0.3881
  12.400   0.8937   0.17292   0.16129  -0.1366  0.6585  1.0000  -1.2925   0.0000   0.0000   0.0000   0.3881
  12.500   0.8870   0.17220   0.16059  -0.1362  0.6561  1.0000  -1.2805   0.0000   0.0000   0.0000   0.3886
  12.600   0.8838   0.17198   0.16039  -0.1360  0.6501  1.0000  -1.2751   0.0000   0.0000   0.0000   0.3888
  12.700   0.8910   0.17375   0.16231  -0.1366  0.6413  1.0000  -1.2881   0.0000   0.0000   0.0000   0.3880
  12.800   0.9108   0.17944   0.16808  -0.1383  0.6332  1.0000  -1.3220   0.0000   0.0000   0.0000   0.3865
  12.900   0.9023   0.17804   0.16668  -0.1378  0.6298  1.0000  -1.3066   0.0000   0.0000   0.0000   0.3872
  13.000   0.9011   0.17793   0.16660  -0.1376  0.6213  1.0000  -1.3046   0.0000   0.0000   0.0000   0.3871
  13.100   0.9153   0.18141   0.17017  -0.1387  0.6121  1.0000  -1.3291   0.0000   0.0000   0.0000   0.3858
  13.200   0.9317   0.18716   0.17599  -0.1403  0.6084  1.0000  -1.3546   0.0000   0.0000   0.0000   0.3847
  13.300   0.9254   0.18639   0.17521  -0.1401  0.6070  1.0000  -1.3414   0.0000   0.0000   0.0000   0.3854
  13.400   0.9199   0.18560   0.17443  -0.1400  0.6038  1.0000  -1.3301   0.0000   0.0000   0.0000   0.3860
  13.500   0.9193   0.18587   0.17474  -0.1401  0.5983  1.0000  -1.3272   0.0000   0.0000   0.0000   0.3861
  13.600   0.9239   0.18745   0.17635  -0.1406  0.5927  1.0000  -1.3356   0.0000   0.0000   0.0000   0.3857
  13.700   0.9340   0.19056   0.17954  -0.1415  0.5875  1.0000  -1.3553   0.0000   0.0000   0.0000   0.3849
  13.800   0.9507   0.19672   0.18576  -0.1429  0.5828  1.0000  -1.3861   0.0000   0.0000   0.0000   0.3836
  13.900   0.9425   0.19495   0.18399  -0.1426  0.5806  1.0000  -1.3700   0.0000   0.0000   0.0000   0.3845
  14.000   0.9379   0.19386   0.18291  -0.1425  0.5747  1.0000  -1.3613   0.0000   0.0000   0.0000   0.3849
  14.100   0.9440   0.19541   0.18451  -0.1429  0.5656  1.0000  -1.3737   0.0000   0.0000   0.0000   0.3842
  14.200   0.9667   0.20304   0.19223  -0.1443  0.5573  1.0000  -1.4164   0.0000   0.0000   0.0000   0.3820
  14.300   0.9587   0.20114   0.19032  -0.1442  0.5551  1.0000  -1.3997   0.0000   0.0000   0.0000   0.3830
  14.400   0.9543   0.20006   0.18925  -0.1442  0.5498  1.0000  -1.3904   0.0000   0.0000   0.0000   0.3835
  14.500   0.9570   0.20107   0.19030  -0.1445  0.5437  1.0000  -1.3946   0.0000   0.0000   0.0000   0.3833
  14.600   0.9643   0.20348   0.19277  -0.1451  0.5386  1.0000  -1.4095   0.0000   0.0000   0.0000   0.3826
  14.700   0.9776   0.20829   0.19766  -0.1460  0.5342  1.0000  -1.4384   0.0000   0.0000   0.0000   0.3814
  14.800   0.9872   0.21300   0.20240  -0.1470  0.5318  1.0000  -1.4574   0.0000   0.0000   0.0000   0.3808
  14.900   0.9801   0.21109   0.20048  -0.1471  0.5300  1.0000  -1.4420   0.0000   0.0000   0.0000   0.3817
  15.000   0.9757   0.20985   0.19924  -0.1473  0.5259  1.0000  -1.4325   0.0000   0.0000   0.0000   0.3824


