xflr5 v6.61

 Calculated polar for: SG6043

 1 1 Reynolds number fixed          Mach number fixed         

 xtrf =   1.000 (top)        1.000 (bottom)
 Mach =   0.000     Re =     0.050 e 6     Ncrit =   9.000

  alpha     CL        CD       CDp       Cm    Top Xtr Bot Xtr   Cpmin    Chinge    XCp    
 ------- -------- --------- --------- -------- ------- ------- -------- --------- ---------
 -10.000  -0.3129   0.14058   0.13365  -0.0329  1.0000  0.1233  -1.3096   0.0000   0.0000   0.0000   0.1333
  -9.900  -0.3168   0.14066   0.13376  -0.0327  1.0000  0.1243  -1.3252   0.0000   0.0000   0.0000   0.1356
  -9.800  -0.3217   0.14098   0.13413  -0.0326  1.0000  0.1251  -1.3440   0.0000   0.0000   0.0000   0.1381
  -9.700  -0.3276   0.14149   0.13469  -0.0324  1.0000  0.1258  -1.3649   0.0000   0.0000   0.0000   0.1408
  -9.600  -0.3339   0.14209   0.13533  -0.0322  1.0000  0.1263  -1.3870   0.0000   0.0000   0.0000   0.1437
  -9.500  -0.3405   0.14270   0.13599  -0.0319  1.0000  0.1266  -1.4092   0.0000   0.0000   0.0000   0.1467
  -9.400  -0.3472   0.14328   0.13662  -0.0317  1.0000  0.1269  -1.4312   0.0000   0.0000   0.0000   0.1497
  -9.300  -0.3539   0.14381   0.13720  -0.0314  1.0000  0.1272  -1.4526   0.0000   0.0000   0.0000   0.1527
  -9.200  -0.3606   0.14429   0.13773  -0.0310  1.0000  0.1273  -1.4734   0.0000   0.0000   0.0000   0.1557
  -9.100  -0.3673   0.14470   0.13819  -0.0306  1.0000  0.1275  -1.4937   0.0000   0.0000   0.0000   0.1587
  -9.000  -0.3740   0.14506   0.13860  -0.0301  1.0000  0.1276  -1.5132   0.0000   0.0000   0.0000   0.1618
  -8.900  -0.3807   0.14537   0.13896  -0.0296  1.0000  0.1277  -1.5321   0.0000   0.0000   0.0000   0.1649
  -8.800  -0.3877   0.14564   0.13928  -0.0290  1.0000  0.1278  -1.5509   0.0000   0.0000   0.0000   0.1681
  -8.700  -0.3370   0.13113   0.12464  -0.0280  1.0000  0.1320  -1.4003   0.0000   0.0000   0.0000   0.1581
  -8.600  -0.3311   0.12914   0.12264  -0.0271  1.0000  0.1337  -1.3740   0.0000   0.0000   0.0000   0.1592
  -8.500  -0.3287   0.12782   0.12134  -0.0264  1.0000  0.1353  -1.3599   0.0000   0.0000   0.0000   0.1609
  -8.400  -0.3278   0.12678   0.12032  -0.0257  1.0000  0.1368  -1.3514   0.0000   0.0000   0.0000   0.1628
  -8.300  -0.3278   0.12588   0.11945  -0.0251  1.0000  0.1383  -1.3464   0.0000   0.0000   0.0000   0.1649
  -8.200  -0.3284   0.12509   0.11867  -0.0245  1.0000  0.1398  -1.3439   0.0000   0.0000   0.0000   0.1670
  -8.100  -0.3297   0.12437   0.11798  -0.0239  1.0000  0.1413  -1.3435   0.0000   0.0000   0.0000   0.1692
  -8.000  -0.3314   0.12372   0.11733  -0.0233  1.0000  0.1428  -1.3449   0.0000   0.0000   0.0000   0.1714
  -7.900  -0.3336   0.12314   0.11678  -0.0228  1.0000  0.1443  -1.3482   0.0000   0.0000   0.0000   0.1737
  -7.800  -0.3365   0.12264   0.11631  -0.0223  1.0000  0.1458  -1.3534   0.0000   0.0000   0.0000   0.1760
  -7.700  -0.3401   0.12226   0.11597  -0.0218  1.0000  0.1473  -1.3612   0.0000   0.0000   0.0000   0.1784
  -7.600  -0.3447   0.12205   0.11579  -0.0213  1.0000  0.1487  -1.3719   0.0000   0.0000   0.0000   0.1809
  -7.500  -0.3505   0.12204   0.11583  -0.0208  1.0000  0.1500  -1.3864   0.0000   0.0000   0.0000   0.1836
  -7.400  -0.3578   0.12226   0.11610  -0.0203  1.0000  0.1511  -1.4045   0.0000   0.0000   0.0000   0.1865
  -7.300  -0.3663   0.12266   0.11654  -0.0198  1.0000  0.1519  -1.4255   0.0000   0.0000   0.0000   0.1897
  -7.200  -0.3757   0.12314   0.11708  -0.0191  1.0000  0.1525  -1.4477   0.0000   0.0000   0.0000   0.1932
  -7.100  -0.3856   0.12365   0.11767  -0.0183  1.0000  0.1529  -1.4701   0.0000   0.0000   0.0000   0.1968
  -7.000  -0.3957   0.12412   0.11820  -0.0175  1.0000  0.1533  -1.4926   0.0000   0.0000   0.0000   0.2004
  -6.900  -0.4052   0.12458   0.11871  -0.0171  1.0000  0.1536  -1.5165   0.0000   0.0000   0.0000   0.2027
  -6.800  -0.4133   0.12500   0.11917  -0.0176  1.0000  0.1539  -1.5436   0.0000   0.0000   0.0000   0.2025
  -6.700  -0.4202   0.12533   0.11954  -0.0187  1.0000  0.1542  -1.5718   0.0000   0.0000   0.0000   0.2010
  -6.600  -0.4258   0.12553   0.11977  -0.0201  1.0000  0.1545  -1.6004   0.0000   0.0000   0.0000   0.1983
  -6.500  -0.4302   0.12557   0.11984  -0.0220  1.0000  0.1547  -1.6297   0.0000   0.0000   0.0000   0.1946
  -6.400  -0.4136   0.11794   0.11221  -0.0154  1.0000  0.1570  -1.5346   0.0000   0.0000   0.0000   0.2082
  -6.300  -0.3901   0.11343   0.10763  -0.0129  1.0000  0.1609  -1.4412   0.0000   0.0000   0.0000   0.2120
  -6.200  -0.3863   0.11205   0.10627  -0.0120  1.0000  0.1632  -1.4200   0.0000   0.0000   0.0000   0.2139
  -6.100  -0.3866   0.11114   0.10538  -0.0112  1.0000  0.1652  -1.4113   0.0000   0.0000   0.0000   0.2162
  -6.000  -0.3887   0.11042   0.10469  -0.0103  1.0000  0.1670  -1.4083   0.0000   0.0000   0.0000   0.2186
  -5.900  -0.3919   0.10981   0.10410  -0.0095  1.0000  0.1687  -1.4088   0.0000   0.0000   0.0000   0.2210
  -5.800  -0.3956   0.10923   0.10356  -0.0089  1.0000  0.1705  -1.4119   0.0000   0.0000   0.0000   0.2230
  -5.700  -0.3992   0.10867   0.10303  -0.0085  1.0000  0.1725  -1.4172   0.0000   0.0000   0.0000   0.2242
  -5.600  -0.4034   0.10821   0.10260  -0.0085  1.0000  0.1746  -1.4265   0.0000   0.0000   0.0000   0.2248
  -5.500  -0.4087   0.10797   0.10239  -0.0089  1.0000  0.1768  -1.4429   0.0000   0.0000   0.0000   0.2240
  -5.400  -0.4155   0.10822   0.10268  -0.0108  1.0000  0.1790  -1.4742   0.0000   0.0000   0.0000   0.2201
  -5.300  -0.4220   0.10938   0.10385  -0.0164  1.0000  0.1810  -1.5352   0.0000   0.0000   0.0000   0.2075
  -5.100  -0.4230   0.10657   0.10111  -0.0193  1.0000  0.1830  -1.5642   0.0000   0.0000   0.0000   0.2009
  -5.000  -0.4219   0.10392   0.09849  -0.0149  1.0000  0.1844  -1.5229   0.0000   0.0000   0.0000   0.2113
  -4.900  -0.4194   0.10201   0.09660  -0.0114  1.0000  0.1861  -1.4851   0.0000   0.0000   0.0000   0.2192
  -4.800  -0.4167   0.10058   0.09519  -0.0090  1.0000  0.1885  -1.4538   0.0000   0.0000   0.0000   0.2249
  -4.700  -0.4147   0.09946   0.09408  -0.0075  1.0000  0.1914  -1.4312   0.0000   0.0000   0.0000   0.2285
  -4.600  -0.4137   0.09851   0.09316  -0.0068  1.0000  0.1949  -1.4180   0.0000   0.0000   0.0000   0.2302
  -4.500  -0.4134   0.09768   0.09234  -0.0069  1.0000  0.1989  -1.4138   0.0000   0.0000   0.0000   0.2299
  -4.400  -0.4135   0.09717   0.09184  -0.0092  1.0000  0.2042  -1.4272   0.0000   0.0000   0.0000   0.2245
  -4.300  -0.4072   0.09731   0.09192  -0.0215  1.0000  0.2103  -1.5070   0.0000   0.0000   0.0000   0.1940
  -4.200  -0.4099   0.09496   0.08964  -0.0167  1.0000  0.2117  -1.4728   0.0000   0.0000   0.0000   0.2061
  -4.100  -0.4108   0.09333   0.08806  -0.0124  1.0000  0.2139  -1.4367   0.0000   0.0000   0.0000   0.2167
  -4.000  -0.4100   0.09218   0.08694  -0.0093  1.0000  0.2173  -1.4047   0.0000   0.0000   0.0000   0.2244
  -3.900  -0.4085   0.09126   0.08604  -0.0077  1.0000  0.2219  -1.3831   0.0000   0.0000   0.0000   0.2280
  -3.800  -0.3931   0.09171   0.08636  -0.0221  1.0000  0.2376  -1.4432   0.0000   0.0000   0.0000   0.1908
  -3.700  -0.3971   0.08946   0.08419  -0.0176  1.0000  0.2390  -1.4158   0.0000   0.0000   0.0000   0.2028
  -3.600  -0.3992   0.08791   0.08270  -0.0134  1.0000  0.2411  -1.3863   0.0000   0.0000   0.0000   0.2135
  -3.500  -0.3995   0.08681   0.08163  -0.0103  1.0000  0.2444  -1.3585   0.0000   0.0000   0.0000   0.2215
  -3.400  -0.3808   0.08729   0.08198  -0.0216  1.0000  0.2648  -1.3805   0.0000   0.0000   0.0000   0.1903
  -3.300  -0.3846   0.08515   0.07992  -0.0176  1.0000  0.2662  -1.3585   0.0000   0.0000   0.0000   0.2013
  -3.200  -0.3869   0.08362   0.07845  -0.0140  1.0000  0.2682  -1.3347   0.0000   0.0000   0.0000   0.2110
  -3.100  -0.3873   0.08249   0.07736  -0.0111  1.0000  0.2713  -1.3112   0.0000   0.0000   0.0000   0.2186
  -3.000  -0.3705   0.08240   0.07717  -0.0192  1.0000  0.2927  -1.3127   0.0000   0.0000   0.0000   0.1954
  -2.900  -0.3733   0.08062   0.07543  -0.0158  1.0000  0.2943  -1.2929   0.0000   0.0000   0.0000   0.2050
  -2.800  -0.3746   0.07931   0.07417  -0.0127  1.0000  0.2967  -1.2720   0.0000   0.0000   0.0000   0.2134
  -2.700  -0.3743   0.07830   0.07319  -0.0103  1.0000  0.3007  -1.2594   0.0000   0.0000   0.0000   0.2199
  -2.600  -0.3704   0.07755   0.07245  -0.0098  1.0000  0.3098  -1.2517   0.0000   0.0000   0.0000   0.2208
  -2.500  -0.3480   0.07836   0.07313  -0.0189  1.0000  0.3462  -1.2558   0.0000   0.0000   0.0000   0.1929
  -2.400  -0.3526   0.07610   0.07095  -0.0153  1.0000  0.3477  -1.2486   0.0000   0.0000   0.0000   0.2039
  -1.300  -0.0816   0.05186   0.04413  -0.0744  1.0000  0.1549  -1.5544   0.0000   0.0000   0.0000  -0.6699
  -1.200  -0.0728   0.04951   0.04189  -0.0751  1.0000  0.1508  -1.5394   0.0000   0.0000   0.0000  -0.7916
  -1.100  -0.0601   0.04822   0.04053  -0.0763  1.0000  0.1467  -1.5310   0.0000   0.0000   0.0000  -1.0313
  -1.000  -0.0450   0.04713   0.03928  -0.0778  1.0000  0.1433  -1.5280   0.0000   0.0000   0.0000  -1.4937
  -0.900  -0.0303   0.04626   0.03819  -0.0791  1.0000  0.1418  -1.5214   0.0000   0.0000   0.0000  -2.3793
  -0.800  -0.0165   0.04554   0.03730  -0.0802  1.0000  0.1416  -1.5113   0.0000   0.0000   0.0000  -4.6563
  -0.700  -0.0031   0.04491   0.03650  -0.0812  1.0000  0.1419  -1.4991   0.0000   0.0000   0.0000  -26.2261
  -0.600   0.0101   0.04433   0.03574  -0.0821  1.0000  0.1421  -1.4867   0.0000   0.0000   0.0000   8.3921
  -0.500   0.0233   0.04377   0.03500  -0.0829  1.0000  0.1420  -1.4751   0.0000   0.0000   0.0000   3.8263
  -0.400   0.0365   0.04323   0.03428  -0.0837  1.0000  0.1414  -1.4644   0.0000   0.0000   0.0000   2.5578
  -0.300   0.0492   0.04275   0.03361  -0.0843  1.0000  0.1409  -1.4533   0.0000   0.0000   0.0000   1.9704
  -0.200   0.0613   0.04235   0.03304  -0.0847  1.0000  0.1411  -1.4400   0.0000   0.0000   0.0000   1.6396
  -0.100   0.0727   0.04202   0.03256  -0.0851  1.0000  0.1419  -1.4248   0.0000   0.0000   0.0000   1.4255
   0.000   0.0838   0.04175   0.03214  -0.0853  1.0000  0.1434  -1.4081   0.0000   0.0000   0.0000   1.2716
   0.100   0.0948   0.04153   0.03178  -0.0856  1.0000  0.1454  -1.3906   0.0000   0.0000   0.0000   1.1551
   0.200   0.1056   0.04137   0.03147  -0.0857  1.0000  0.1483  -1.3728   0.0000   0.0000   0.0000   1.0637
   0.300   0.1159   0.04138   0.03130  -0.0858  1.0000  0.1529  -1.3537   0.0000   0.0000   0.0000   0.9916
   0.400   0.1265   0.04100   0.03093  -0.0861  1.0000  0.1600  -1.3269   0.0000   0.0000   0.0000   0.9313
   0.500   0.1360   0.04095   0.03089  -0.0862  1.0000  0.1690  -1.3013   0.0000   0.0000   0.0000   0.8846
   0.600   0.1461   0.04098   0.03080  -0.0862  1.0000  0.1782  -1.3001   0.0000   0.0000   0.0000   0.8402
   0.700   0.1567   0.04081   0.03064  -0.0864  1.0000  0.1911  -1.2921   0.0000   0.0000   0.0000   0.8010
   0.800   0.1667   0.04091   0.03061  -0.0864  1.0000  0.2077  -1.2867   0.0000   0.0000   0.0000   0.7677
   0.900   0.1777   0.04079   0.03058  -0.0866  1.0000  0.2286  -1.2761   0.0000   0.0000   0.0000   0.7366
   1.000   0.1891   0.04075   0.03060  -0.0868  1.0000  0.2557  -1.2653   0.0000   0.0000   0.0000   0.7082
   1.200   0.2237   0.03955   0.03121  -0.0883  1.0000  0.5813  -1.2422   0.0000   0.0000   0.0000   0.6434
   1.400   0.2216   0.03872   0.03061  -0.0839  1.0000  1.0000  -1.2420   0.0000   0.0000   0.0000   0.6271
   1.500   0.2296   0.03918   0.03082  -0.0839  1.0000  1.0000  -1.2084   0.0000   0.0000   0.0000   0.6135
   1.600   0.2373   0.03964   0.03111  -0.0839  1.0000  1.0000  -1.1711   0.0000   0.0000   0.0000   0.6014
   1.700   0.2448   0.04011   0.03143  -0.0839  1.0000  1.0000  -1.1322   0.0000   0.0000   0.0000   0.5904
   1.800   0.2522   0.04060   0.03179  -0.0839  1.0000  1.0000  -1.0925   0.0000   0.0000   0.0000   0.5802
   1.900   0.2595   0.04109   0.03216  -0.0839  1.0000  1.0000  -1.0524   0.0000   0.0000   0.0000   0.5707
   2.000   0.2667   0.04159   0.03255  -0.0839  1.0000  1.0000  -1.0122   0.0000   0.0000   0.0000   0.5619
   2.100   0.2738   0.04210   0.03297  -0.0840  1.0000  1.0000  -0.9721   0.0000   0.0000   0.0000   0.5537
   2.200   0.2809   0.04262   0.03340  -0.0840  1.0000  1.0000  -0.9321   0.0000   0.0000   0.0000   0.5460
   2.300   0.2879   0.04315   0.03384  -0.0841  1.0000  1.0000  -0.8922   0.0000   0.0000   0.0000   0.5387
   2.400   0.3846   0.04576   0.03600  -0.0988  0.9403  1.0000  -0.6304   0.0000   0.0000   0.0000   0.5036
   2.500   0.4095   0.04674   0.03684  -0.1014  0.9322  1.0000  -0.5898   0.0000   0.0000   0.0000   0.4943
   2.600   0.4143   0.04688   0.03695  -0.1010  0.9257  1.0000  -0.5938   0.0000   0.0000   0.0000   0.4903
   2.700   0.4279   0.04738   0.03738  -0.1020  0.9195  1.0000  -0.6052   0.0000   0.0000   0.0000   0.4846
   2.800   0.4531   0.04827   0.03817  -0.1045  0.9129  1.0000  -0.6255   0.0000   0.0000   0.0000   0.4769
   2.900   0.4608   0.04859   0.03845  -0.1045  0.9057  1.0000  -0.6326   0.0000   0.0000   0.0000   0.4729
   3.000   0.4688   0.04893   0.03876  -0.1046  0.8995  1.0000  -0.6399   0.0000   0.0000   0.0000   0.4691
   3.100   0.4847   0.04948   0.03924  -0.1058  0.8935  1.0000  -0.6532   0.0000   0.0000   0.0000   0.4641
   3.200   0.5126   0.05039   0.04006  -0.1086  0.8877  1.0000  -0.6777   0.0000   0.0000   0.0000   0.4576
   3.300   0.5131   0.05056   0.04023  -0.1075  0.8807  1.0000  -0.6801   0.0000   0.0000   0.0000   0.4552
   3.400   0.5212   0.05093   0.04057  -0.1076  0.8742  1.0000  -0.6886   0.0000   0.0000   0.0000   0.4519
   3.500   0.5387   0.05143   0.04103  -0.1089  0.8680  1.0000  -0.7050   0.0000   0.0000   0.0000   0.4475
   3.600   0.5683   0.05224   0.04177  -0.1117  0.8626  1.0000  -0.7330   0.0000   0.0000   0.0000   0.4419
   3.700   0.5643   0.05244   0.04198  -0.1101  0.8553  1.0000  -0.7323   0.0000   0.0000   0.0000   0.4403
   3.800   0.5720   0.05283   0.04236  -0.1101  0.8488  1.0000  -0.7419   0.0000   0.0000   0.0000   0.4375
   3.900   0.5896   0.05329   0.04279  -0.1113  0.8428  1.0000  -0.7603   0.0000   0.0000   0.0000   0.4337
   4.000   0.6185   0.05391   0.04337  -0.1139  0.8377  1.0000  -0.7894   0.0000   0.0000   0.0000   0.4290
   4.100   0.6146   0.05424   0.04371  -0.1123  0.8300  1.0000  -0.7893   0.0000   0.0000   0.0000   0.4275
   4.200   0.6221   0.05463   0.04411  -0.1122  0.8230  1.0000  -0.8003   0.0000   0.0000   0.0000   0.4250
   4.300   0.6406   0.05502   0.04448  -0.1134  0.8171  1.0000  -0.8222   0.0000   0.0000   0.0000   0.4216
   4.400   0.6695   0.05547   0.04491  -0.1159  0.8124  1.0000  -0.8546   0.0000   0.0000   0.0000   0.4175
   4.500   0.6638   0.05596   0.04540  -0.1142  0.8045  1.0000  -0.8527   0.0000   0.0000   0.0000   0.4163
   4.600   0.6708   0.05636   0.04581  -0.1140  0.7974  1.0000  -0.8649   0.0000   0.0000   0.0000   0.4141
   4.700   0.6906   0.05663   0.04608  -0.1152  0.7914  1.0000  -0.8914   0.0000   0.0000   0.0000   0.4109
   4.800   0.7214   0.05685   0.04629  -0.1176  0.7867  1.0000  -0.9305   0.0000   0.0000   0.0000   0.4070
   4.900   0.7114   0.05750   0.04696  -0.1155  0.7780  1.0000  -0.9239   0.0000   0.0000   0.0000   0.4062
   5.000   0.7197   0.05790   0.04738  -0.1154  0.7710  1.0000  -0.9379   0.0000   0.0000   0.0000   0.4041
   5.100   0.7408   0.05806   0.04754  -0.1166  0.7653  1.0000  -0.9696   0.0000   0.0000   0.0000   0.4011
   5.200   0.7730   0.05802   0.04751  -0.1189  0.7609  1.0000  -1.0159   0.0000   0.0000   0.0000   0.3973
   5.300   0.7578   0.05893   0.04845  -0.1164  0.7512  1.0000  -1.0028   0.0000   0.0000   0.0000   0.3970
   5.400   0.7696   0.05920   0.04873  -0.1166  0.7440  1.0000  -1.0237   0.0000   0.0000   0.0000   0.3948
   5.500   0.7943   0.05910   0.04870  -0.1180  0.7387  1.0000  -1.0613   0.0000   0.0000   0.0000   0.3917
   5.600   0.8278   0.05880   0.04841  -0.1201  0.7349  1.0000  -1.1109   0.0000   0.0000   0.0000   0.3881
   5.700   0.8041   0.06018   0.04982  -0.1170  0.7238  1.0000  -1.0856   0.0000   0.0000   0.0000   0.3884
   5.800   0.8204   0.06023   0.04990  -0.1175  0.7171  1.0000  -1.1130   0.0000   0.0000   0.0000   0.3860
   5.900   0.8496   0.05975   0.04945  -0.1190  0.7122  1.0000  -1.1585   0.0000   0.0000   0.0000   0.3827
   6.000   0.8507   0.06046   0.05018  -0.1181  0.7042  1.0000  -1.1675   0.0000   0.0000   0.0000   0.3814
   6.100   0.8529   0.06106   0.05081  -0.1174  0.6957  1.0000  -1.1779   0.0000   0.0000   0.0000   0.3800
   6.200   0.8750   0.06074   0.05053  -0.1182  0.6899  1.0000  -1.2186   0.0000   0.0000   0.0000   0.3773
   6.300   0.9086   0.05979   0.04963  -0.1197  0.6858  1.0000  -1.2774   0.0000   0.0000   0.0000   0.3739
   6.400   0.8916   0.06145   0.05131  -0.1175  0.6750  1.0000  -1.2585   0.0000   0.0000   0.0000   0.3739
   6.500   0.9062   0.06136   0.05126  -0.1176  0.6676  1.0000  -1.2886   0.0000   0.0000   0.0000   0.3717
   6.600   0.9360   0.06035   0.05031  -0.1186  0.6627  1.0000  -1.3445   0.0000   0.0000   0.0000   0.3685
   6.700   0.9739   0.05879   0.04891  -0.1201  0.6594  1.0000  -1.4201   0.0000   0.0000   0.0000   0.3649
   6.800   0.9407   0.06169   0.05172  -0.1171  0.6457  1.0000  -1.3708   0.0000   0.0000   0.0000   0.3659
   6.900   0.9664   0.06071   0.05089  -0.1176  0.6397  1.0000  -1.4258   0.0000   0.0000   0.0000   0.3630
   7.000   1.0043   0.05873   0.04900  -0.1186  0.6357  1.0000  -1.5121   0.0000   0.0000   0.0000   0.3593
   7.200   1.0028   0.06043   0.05076  -0.1166  0.6167  1.0000  -1.5319   0.0000   0.0000   0.0000   0.3572
   7.300   1.0379   0.05835   0.04879  -0.1172  0.6122  1.0000  -1.6151   0.0000   0.0000   0.0000   0.3537
   7.400   1.0858   0.05492   0.04549  -0.1182  0.6094  1.0000  -1.7263   0.0000   0.0000   0.0000   0.3495
   7.600   1.0813   0.05676   0.04739  -0.1157  0.5890  1.0000  -1.7418   0.0000   0.0000   0.0000   0.3473
   7.700   1.1300   0.05272   0.04358  -0.1163  0.5861  1.0000  -1.8594   0.0000   0.0000   0.0000   0.3431
   7.800   1.2102   0.04592   0.03699  -0.1191  0.5835  1.0000  -2.0611   0.0000   0.0000   0.0000   0.3383
   7.900   1.1398   0.05312   0.04408  -0.1141  0.5670  1.0000  -1.9129   0.0000   0.0000   0.0000   0.3400
   8.000   1.2144   0.04651   0.03767  -0.1161  0.5627  1.0000  -2.1049   0.0000   0.0000   0.0000   0.3352
   8.100   1.2645   0.04283   0.03412  -0.1178  0.5523  1.0000  -2.2382   0.0000   0.0000   0.0000   0.3326
   8.200   1.3492   0.03742   0.02883  -0.1236  0.5312  1.0000  -2.4625   0.0000   0.0000   0.0000   0.3307
   8.300   1.3277   0.03906   0.03052  -0.1194  0.5229  1.0000  -2.4301   0.0000   0.0000   0.0000   0.3290
   8.400   1.3701   0.03693   0.02834  -0.1217  0.5018  1.0000  -2.5585   0.0000   0.0000   0.0000   0.3277
   8.500   1.4008   0.03583   0.02709  -0.1231  0.4804  1.0000  -2.6617   0.0000   0.0000   0.0000   0.3265
   8.600   1.3905   0.03672   0.02807  -0.1200  0.4704  1.0000  -2.6573   0.0000   0.0000   0.0000   0.3247
   8.700   1.4119   0.03633   0.02753  -0.1205  0.4508  1.0000  -2.7408   0.0000   0.0000   0.0000   0.3236
   8.800   1.4217   0.03644   0.02754  -0.1197  0.4341  1.0000  -2.7924   0.0000   0.0000   0.0000   0.3223
   8.900   1.4239   0.03693   0.02802  -0.1181  0.4206  1.0000  -2.8221   0.0000   0.0000   0.0000   0.3209
   9.000   1.4403   0.03700   0.02785  -0.1182  0.4021  1.0000  -2.8981   0.0000   0.0000   0.0000   0.3198
   9.100   1.4371   0.03765   0.02857  -0.1160  0.3910  1.0000  -2.9147   0.0000   0.0000   0.0000   0.3183
   9.200   1.4500   0.03800   0.02873  -0.1159  0.3747  1.0000  -2.9813   0.0000   0.0000   0.0000   0.3173
   9.300   1.4509   0.03861   0.02941  -0.1142  0.3632  1.0000  -3.0095   0.0000   0.0000   0.0000   0.3160
   9.400   1.4630   0.03919   0.02983  -0.1141  0.3488  1.0000  -3.0716   0.0000   0.0000   0.0000   0.3151
   9.500   1.4642   0.03985   0.03052  -0.1126  0.3383  1.0000  -3.1002   0.0000   0.0000   0.0000   0.3138
   9.600   1.4775   0.04048   0.03097  -0.1127  0.3246  1.0000  -3.1662   0.0000   0.0000   0.0000   0.3130
   9.700   1.4758   0.04119   0.03177  -0.1108  0.3161  1.0000  -3.1856   0.0000   0.0000   0.0000   0.3117
   9.800   1.4938   0.04184   0.03213  -0.1117  0.3017  1.0000  -3.2676   0.0000   0.0000   0.0000   0.3111
   9.900   1.4893   0.04261   0.03307  -0.1094  0.2954  1.0000  -3.2771   0.0000   0.0000   0.0000   0.3097
  10.000   1.4941   0.04327   0.03373  -0.1084  0.2863  1.0000  -3.3194   0.0000   0.0000   0.0000   0.3087
  10.100   1.5106   0.04423   0.03452  -0.1093  0.2750  1.0000  -3.4004   0.0000   0.0000   0.0000   0.3082
  10.200   1.5081   0.04505   0.03550  -0.1073  0.2694  1.0000  -3.4173   0.0000   0.0000   0.0000   0.3069
  10.300   1.5134   0.04577   0.03622  -0.1065  0.2616  1.0000  -3.4627   0.0000   0.0000   0.0000   0.3060
  10.400   1.5316   0.04678   0.03702  -0.1076  0.2509  1.0000  -3.5515   0.0000   0.0000   0.0000   0.3057
  10.500   1.5275   0.04760   0.03803  -0.1055  0.2465  1.0000  -3.5627   0.0000   0.0000   0.0000   0.3043
  10.600   1.5272   0.04839   0.03891  -0.1039  0.2410  1.0000  -3.5886   0.0000   0.0000   0.0000   0.3032
  10.700   1.5573   0.04956   0.03970  -0.1068  0.2286  1.0000  -3.7188   0.0000   0.0000   0.0000   0.3035
  10.800   1.5533   0.05050   0.04087  -0.1047  0.2257  1.0000  -3.7267   0.0000   0.0000   0.0000   0.3022
  10.900   1.5507   0.05149   0.04210  -0.1029  0.2223  1.0000  -3.7395   0.0000   0.0000   0.0000   0.3010
  11.000   1.5503   0.05252   0.04327  -0.1014  0.2185  1.0000  -3.7599   0.0000   0.0000   0.0000   0.2999
  11.100   1.5537   0.05348   0.04431  -0.1005  0.2140  1.0000  -3.7953   0.0000   0.0000   0.0000   0.2990
  11.200   1.5852   0.05515   0.04565  -0.1036  0.2039  1.0000  -3.9252   0.0000   0.0000   0.0000   0.2994
  11.300   1.5790   0.05611   0.04683  -0.1013  0.2020  1.0000  -3.9263   0.0000   0.0000   0.0000   0.2982
  11.400   1.5732   0.05710   0.04802  -0.0992  0.1998  1.0000  -3.9288   0.0000   0.0000   0.0000   0.2969
  11.500   1.5685   0.05814   0.04921  -0.0973  0.1972  1.0000  -3.9353   0.0000   0.0000   0.0000   0.2957
  11.600   1.5656   0.05917   0.05036  -0.0956  0.1942  1.0000  -3.9491   0.0000   0.0000   0.0000   0.2946
  11.700   1.5643   0.06015   0.05143  -0.0942  0.1910  1.0000  -3.9698   0.0000   0.0000   0.0000   0.2936
  11.800   1.5700   0.06100   0.05228  -0.0936  0.1867  1.0000  -4.0175   0.0000   0.0000   0.0000   0.2929
  11.900   1.5980   0.06337   0.05447  -0.0964  0.1799  1.0000  -4.1270   0.0000   0.0000   0.0000   0.2933
  12.000   1.5900   0.06454   0.05582  -0.0941  0.1790  1.0000  -4.1194   0.0000   0.0000   0.0000   0.2921
  12.100   1.5816   0.06581   0.05726  -0.0920  0.1782  1.0000  -4.1104   0.0000   0.0000   0.0000   0.2909
  12.200   1.5729   0.06716   0.05878  -0.0900  0.1774  1.0000  -4.0999   0.0000   0.0000   0.0000   0.2898
  12.300   1.5637   0.06860   0.06037  -0.0880  0.1766  1.0000  -4.0877   0.0000   0.0000   0.0000   0.2888
  12.400   1.5541   0.07011   0.06204  -0.0862  0.1759  1.0000  -4.0736   0.0000   0.0000   0.0000   0.2878
  12.500   1.5440   0.07172   0.06380  -0.0844  0.1752  1.0000  -4.0575   0.0000   0.0000   0.0000   0.2869
  12.600   1.5332   0.07343   0.06564  -0.0828  0.1747  1.0000  -4.0389   0.0000   0.0000   0.0000   0.2861
  12.700   1.5217   0.07524   0.06759  -0.0813  0.1742  1.0000  -4.0172   0.0000   0.0000   0.0000   0.2853
  12.800   1.5094   0.07718   0.06966  -0.0799  0.1739  1.0000  -3.9921   0.0000   0.0000   0.0000   0.2847
  12.900   1.4961   0.07927   0.07188  -0.0786  0.1738  1.0000  -3.9630   0.0000   0.0000   0.0000   0.2842
  13.000   1.4818   0.08154   0.07427  -0.0776  0.1738  1.0000  -3.9293   0.0000   0.0000   0.0000   0.2838
  13.100   1.4664   0.08401   0.07685  -0.0767  0.1740  1.0000  -3.8904   0.0000   0.0000   0.0000   0.2836
  13.200   1.4499   0.08671   0.07966  -0.0761  0.1743  1.0000  -3.8463   0.0000   0.0000   0.0000   0.2836
  13.300   1.4324   0.08967   0.08273  -0.0757  0.1748  1.0000  -3.7966   0.0000   0.0000   0.0000   0.2839
  13.400   1.4138   0.09292   0.08607  -0.0757  0.1754  1.0000  -3.7410   0.0000   0.0000   0.0000   0.2844
  13.500   1.3943   0.09649   0.08972  -0.0760  0.1761  1.0000  -3.6793   0.0000   0.0000   0.0000   0.2852
  13.600   1.3740   0.10041   0.09371  -0.0767  0.1769  1.0000  -3.6116   0.0000   0.0000   0.0000   0.2864
  13.700   1.3532   0.10470   0.09806  -0.0777  0.1777  1.0000  -3.5382   0.0000   0.0000   0.0000   0.2879
  13.800   1.3324   0.10936   0.10276  -0.0792  0.1785  1.0000  -3.4600   0.0000   0.0000   0.0000   0.2898
  13.900   1.3122   0.11434   0.10777  -0.0811  0.1793  1.0000  -3.3786   0.0000   0.0000   0.0000   0.2920
  14.000   1.2931   0.11956   0.11295  -0.0832  0.1799  1.0000  -3.2964   0.0000   0.0000   0.0000   0.2945
  14.100   1.2758   0.12490   0.11831  -0.0855  0.1804  1.0000  -3.2163   0.0000   0.0000   0.0000   0.2971
  14.300   1.1461   0.16172   0.15483  -0.1086  0.2036  1.0000  -2.4090   0.0000   0.0000   0.0000   0.3258
  14.400   1.1417   0.16526   0.15837  -0.1103  0.2036  1.0000  -2.3768   0.0000   0.0000   0.0000   0.3275
  14.500   1.1385   0.16859   0.16171  -0.1117  0.2037  1.0000  -2.3511   0.0000   0.0000   0.0000   0.3290
  14.600   1.1375   0.17167   0.16480  -0.1129  0.2039  1.0000  -2.3363   0.0000   0.0000   0.0000   0.3300
  14.700   1.1415   0.17436   0.16753  -0.1134  0.2043  1.0000  -2.3457   0.0000   0.0000   0.0000   0.3299


