xflr5 v6.61

 Calculated polar for: SG6043

 1 1 Reynolds number fixed          Mach number fixed         

 xtrf =   1.000 (top)        1.000 (bottom)
 Mach =   0.000     Re =     0.325 e 6     Ncrit =   9.000

  alpha     CL        CD       CDp       Cm    Top Xtr Bot Xtr   Cpmin    Chinge    XCp    
 ------- -------- --------- --------- -------- ------- ------- -------- --------- ---------
 -10.000  -0.2460   0.11975   0.11688  -0.0541  0.9851  0.0189  -1.6537   0.0000   0.0000   0.0000   0.0133
  -9.900  -0.2395   0.11832   0.11545  -0.0546  0.9842  0.0190  -1.6087   0.0000   0.0000   0.0000   0.0049
  -9.800  -0.2333   0.11695   0.11408  -0.0554  0.9832  0.0192  -1.5749   0.0000   0.0000   0.0000  -0.0049
  -9.700  -0.2272   0.11561   0.11274  -0.0564  0.9823  0.0194  -1.5480   0.0000   0.0000   0.0000  -0.0158
  -9.600  -0.2211   0.11427   0.11140  -0.0575  0.9813  0.0196  -1.5264   0.0000   0.0000   0.0000  -0.0279
  -9.500  -0.2150   0.11292   0.11005  -0.0587  0.9804  0.0198  -1.5092   0.0000   0.0000   0.0000  -0.0411
  -9.400  -0.2089   0.11156   0.10869  -0.0599  0.9796  0.0200  -1.4958   0.0000   0.0000   0.0000  -0.0557
  -9.300  -0.2027   0.11019   0.10731  -0.0613  0.9788  0.0203  -1.4857   0.0000   0.0000   0.0000  -0.0715
  -9.200  -0.1964   0.10879   0.10591  -0.0627  0.9781  0.0206  -1.4789   0.0000   0.0000   0.0000  -0.0889
  -9.100  -0.1901   0.10737   0.10449  -0.0642  0.9774  0.0209  -1.4753   0.0000   0.0000   0.0000  -0.1078
  -9.000  -0.1837   0.10593   0.10305  -0.0658  0.9767  0.0213  -1.4750   0.0000   0.0000   0.0000  -0.1286
  -8.900  -0.1771   0.10446   0.10157  -0.0674  0.9761  0.0217  -1.4784   0.0000   0.0000   0.0000  -0.1517
  -8.800  -0.1705   0.10296   0.10007  -0.0692  0.9756  0.0222  -1.4865   0.0000   0.0000   0.0000  -0.1775
  -8.700  -0.1637   0.10142   0.09852  -0.0711  0.9750  0.0228  -1.5027   0.0000   0.0000   0.0000  -0.2067
  -8.600  -0.1568   0.09980   0.09690  -0.0735  0.9745  0.0235  -1.5433   0.0000   0.0000   0.0000  -0.2424
  -8.500  -0.1615   0.09905   0.09617  -0.0727  0.9691  0.0239  -1.5898   0.0000   0.0000   0.0000  -0.2228
  -8.400  -0.1607   0.09780   0.09492  -0.0756  0.9657  0.0244  -1.6958   0.0000   0.0000   0.0000  -0.2424
  -8.300  -0.1565   0.09635   0.09348  -0.0782  0.9635  0.0246  -1.7696   0.0000   0.0000   0.0000  -0.2724
  -8.200  -0.1510   0.09483   0.09196  -0.0805  0.9619  0.0247  -1.8169   0.0000   0.0000   0.0000  -0.3065
  -8.100  -0.1449   0.09327   0.09040  -0.0827  0.9605  0.0247  -1.8526   0.0000   0.0000   0.0000  -0.3444
  -8.000  -0.1387   0.09165   0.08878  -0.0849  0.9593  0.0248  -1.8874   0.0000   0.0000   0.0000  -0.3868
  -7.900  -0.1377   0.08845   0.08560  -0.0855  0.9586  0.0252  -1.9214   0.0000   0.0000   0.0000  -0.3957
  -7.800  -0.1302   0.08720   0.08435  -0.0855  0.9582  0.0256  -1.8455   0.0000   0.0000   0.0000  -0.4328
  -7.700  -0.1217   0.08612   0.08327  -0.0858  0.9577  0.0259  -1.7741   0.0000   0.0000   0.0000  -0.4827
  -7.600  -0.1133   0.08499   0.08214  -0.0866  0.9571  0.0263  -1.7212   0.0000   0.0000   0.0000  -0.5436
  -7.500  -0.1052   0.08380   0.08094  -0.0879  0.9565  0.0267  -1.6826   0.0000   0.0000   0.0000  -0.6167
  -7.400  -0.0970   0.08253   0.07967  -0.0894  0.9559  0.0272  -1.6542   0.0000   0.0000   0.0000  -0.7052
  -7.300  -0.0888   0.08120   0.07834  -0.0912  0.9553  0.0277  -1.6335   0.0000   0.0000   0.0000  -0.8138
  -7.200  -0.0996   0.08110   0.07826  -0.0881  0.9479  0.0277  -1.6468   0.0000   0.0000   0.0000  -0.6656
  -7.100  -0.0962   0.08001   0.07718  -0.0888  0.9452  0.0281  -1.6393   0.0000   0.0000   0.0000  -0.7048
  -7.000  -0.0913   0.07881   0.07598  -0.0900  0.9432  0.0286  -1.6322   0.0000   0.0000   0.0000  -0.7677
  -6.900  -0.0859   0.07753   0.07470  -0.0915  0.9413  0.0294  -1.6286   0.0000   0.0000   0.0000  -0.8495
  -6.800  -0.0803   0.07614   0.07331  -0.0935  0.9396  0.0304  -1.6396   0.0000   0.0000   0.0000  -0.9508
  -6.700  -0.0721   0.07417   0.07134  -0.0986  0.9374  0.0320  -1.7218   0.0000   0.0000   0.0000  -1.1578
  -6.600  -0.0544   0.07167   0.06882  -0.1073  0.9358  0.0327  -1.8179   0.0000   0.0000   0.0000  -1.7735
  -6.500  -0.0406   0.06948   0.06661  -0.1125  0.9349  0.0329  -1.8453   0.0000   0.0000   0.0000  -2.5887
  -6.400  -0.0490   0.06913   0.06628  -0.1104  0.9282  0.0329  -1.8630   0.0000   0.0000   0.0000  -2.0566
  -6.300  -0.0450   0.06759   0.06473  -0.1123  0.9243  0.0329  -1.8857   0.0000   0.0000   0.0000  -2.3044
  -6.200  -0.0357   0.06549   0.06261  -0.1158  0.9220  0.0330  -1.9109   0.0000   0.0000   0.0000  -3.0652
  -6.100  -0.0370   0.06092   0.05805  -0.1187  0.9199  0.0337  -2.0067   0.0000   0.0000   0.0000  -3.0294
  -6.000  -0.0305   0.05976   0.05689  -0.1188  0.9189  0.0340  -1.9442   0.0000   0.0000   0.0000  -3.7333
  -5.900  -0.0220   0.05858   0.05570  -0.1196  0.9180  0.0343  -1.8866   0.0000   0.0000   0.0000  -5.2985
  -5.800  -0.0125   0.05741   0.05453  -0.1207  0.9172  0.0347  -1.8300   0.0000   0.0000   0.0000  -9.5916
  -5.700  -0.0022   0.05619   0.05329  -0.1221  0.9165  0.0350  -1.7774   0.0000   0.0000   0.0000  -57.6413
  -5.600   0.0091   0.05483   0.05192  -0.1241  0.9158  0.0355  -1.7313   0.0000   0.0000   0.0000  14.1312
  -5.500   0.0213   0.05336   0.05042  -0.1264  0.9151  0.0360  -1.6895   0.0000   0.0000   0.0000   6.3031
  -5.400   0.0344   0.05173   0.04876  -0.1291  0.9145  0.0366  -1.6558   0.0000   0.0000   0.0000   4.0675
  -5.300   0.0487   0.04994   0.04694  -0.1323  0.9139  0.0373  -1.6289   0.0000   0.0000   0.0000   3.0148
  -5.200   0.0642   0.04799   0.04494  -0.1359  0.9133  0.0382  -1.6092   0.0000   0.0000   0.0000   2.4009
  -5.100   0.0814   0.04583   0.04271  -0.1400  0.9128  0.0394  -1.6000   0.0000   0.0000   0.0000   1.9963
  -5.000   0.1019   0.04331   0.04009  -0.1449  0.9123  0.0413  -1.6172   0.0000   0.0000   0.0000   1.6944
  -4.800   0.1107   0.04228   0.03881  -0.1443  0.9024  0.0437  -1.6790   0.0000   0.0000   0.0000   1.5720
  -4.700   0.1227   0.04106   0.03746  -0.1458  0.9004  0.0439  -1.6837   0.0000   0.0000   0.0000   1.4548
  -4.600   0.1358   0.03963   0.03591  -0.1475  0.8989  0.0440  -1.6967   0.0000   0.0000   0.0000   1.3512
  -4.500   0.1438   0.03376   0.02987  -0.1519  0.8974  0.0458  -1.8121   0.0000   0.0000   0.0000   1.3204
  -4.400   0.1562   0.03269   0.02881  -0.1529  0.8965  0.0464  -1.7653   0.0000   0.0000   0.0000   1.2415
  -4.100   0.2113   0.02353   0.01860  -0.1602  0.8945  0.0339  -2.2166   0.0000   0.0000   0.0000   1.0182
  -4.000   0.2271   0.02261   0.01766  -0.1612  0.8940  0.0319  -2.2032   0.0000   0.0000   0.0000   0.9691
  -3.900   0.2440   0.02090   0.01572  -0.1630  0.8935  0.0312  -2.2323   0.0000   0.0000   0.0000   0.9263
  -3.800   0.2605   0.01967   0.01431  -0.1643  0.8929  0.0309  -2.2315   0.0000   0.0000   0.0000   0.8885
  -3.700   0.2767   0.01869   0.01315  -0.1655  0.8924  0.0307  -2.2120   0.0000   0.0000   0.0000   0.8553
  -3.600   0.2926   0.01815   0.01249  -0.1665  0.8917  0.0314  -2.1590   0.0000   0.0000   0.0000   0.8257
  -3.500   0.3084   0.01794   0.01220  -0.1673  0.8911  0.0323  -2.0850   0.0000   0.0000   0.0000   0.7989
  -3.400   0.3243   0.01787   0.01204  -0.1682  0.8904  0.0329  -2.0024   0.0000   0.0000   0.0000   0.7744
  -3.300   0.3401   0.01702   0.01107  -0.1693  0.8897  0.0328  -1.9618   0.0000   0.0000   0.0000   0.7530
  -3.200   0.3559   0.01605   0.00997  -0.1703  0.8890  0.0324  -1.9297   0.0000   0.0000   0.0000   0.7336
  -3.100   0.3715   0.01537   0.00920  -0.1712  0.8883  0.0322  -1.8823   0.0000   0.0000   0.0000   0.7156
  -3.000   0.3871   0.01482   0.00857  -0.1721  0.8874  0.0321  -1.8285   0.0000   0.0000   0.0000   0.6991
  -2.900   0.3963   0.01450   0.00820  -0.1717  0.8852  0.0321  -1.7850   0.0000   0.0000   0.0000   0.6874
  -2.800   0.4002   0.01432   0.00799  -0.1702  0.8817  0.0321  -1.7521   0.0000   0.0000   0.0000   0.6792
  -2.700   0.4096   0.01404   0.00768  -0.1698  0.8793  0.0322  -1.7049   0.0000   0.0000   0.0000   0.6682
  -2.600   0.4210   0.01375   0.00735  -0.1698  0.8773  0.0324  -1.6511   0.0000   0.0000   0.0000   0.6567
  -2.500   0.4336   0.01346   0.00703  -0.1700  0.8756  0.0326  -1.5927   0.0000   0.0000   0.0000   0.6453
  -2.400   0.4469   0.01320   0.00673  -0.1704  0.8739  0.0329  -1.5306   0.0000   0.0000   0.0000   0.6343
  -2.300   0.4609   0.01273   0.00623  -0.1710  0.8725  0.0337  -1.4800   0.0000   0.0000   0.0000   0.6237
  -2.200   0.4754   0.01233   0.00582  -0.1717  0.8711  0.0352  -1.4234   0.0000   0.0000   0.0000   0.6137
  -2.100   0.4899   0.01209   0.00557  -0.1723  0.8698  0.0370  -1.3782   0.0000   0.0000   0.0000   0.6042
  -2.000   0.5045   0.01190   0.00538  -0.1730  0.8685  0.0395  -1.3382   0.0000   0.0000   0.0000   0.5951
  -1.900   0.5192   0.01173   0.00518  -0.1737  0.8672  0.0428  -1.3033   0.0000   0.0000   0.0000   0.5864
  -1.800   0.5343   0.01142   0.00490  -0.1745  0.8659  0.0525  -1.2853   0.0000   0.0000   0.0000   0.5783
  -1.700   0.5493   0.01117   0.00471  -0.1752  0.8646  0.0755  -1.2584   0.0000   0.0000   0.0000   0.5706
  -1.600   0.5643   0.01102   0.00461  -0.1761  0.8632  0.0936  -1.2036   0.0000   0.0000   0.0000   0.5634
  -1.500   0.5786   0.01094   0.00454  -0.1768  0.8617  0.1093  -1.1433   0.0000   0.0000   0.0000   0.5567
  -1.400   0.5851   0.01090   0.00457  -0.1758  0.8589  0.1234  -1.1006   0.0000   0.0000   0.0000   0.5516
  -1.300   0.5937   0.01083   0.00457  -0.1753  0.8563  0.1442  -1.0526   0.0000   0.0000   0.0000   0.5463
  -1.200   0.6040   0.01070   0.00455  -0.1752  0.8538  0.1767  -1.0005   0.0000   0.0000   0.0000   0.5409
  -1.100   0.6156   0.01051   0.00452  -0.1755  0.8515  0.2301  -0.9456   0.0000   0.0000   0.0000   0.5357
  -1.000   0.6280   0.01026   0.00448  -0.1759  0.8493  0.3057  -0.8894   0.0000   0.0000   0.0000   0.5306
  -0.900   0.6409   0.00995   0.00448  -0.1765  0.8474  0.4140  -0.8307   0.0000   0.0000   0.0000   0.5257
  -0.800   0.6536   0.00968   0.00453  -0.1769  0.8455  0.5351  -0.7723   0.0000   0.0000   0.0000   0.5208
  -0.700   0.6660   0.00951   0.00454  -0.1771  0.8436  0.6074  -0.7364   0.0000   0.0000   0.0000   0.5159
  -0.600   0.6784   0.00937   0.00453  -0.1772  0.8417  0.6581  -0.7447   0.0000   0.0000   0.0000   0.5111
  -0.500   0.6911   0.00928   0.00451  -0.1774  0.8399  0.6974  -0.7535   0.0000   0.0000   0.0000   0.5065
  -0.400   0.7041   0.00921   0.00449  -0.1776  0.8379  0.7283  -0.7624   0.0000   0.0000   0.0000   0.5019
  -0.300   0.7142   0.00918   0.00452  -0.1773  0.8356  0.7555  -0.7701   0.0000   0.0000   0.0000   0.4977
  -0.200   0.7203   0.00914   0.00456  -0.1760  0.8327  0.7818  -0.7758   0.0000   0.0000   0.0000   0.4938
  -0.100   0.7268   0.00909   0.00458  -0.1749  0.8297  0.8110  -0.7820   0.0000   0.0000   0.0000   0.4899
   0.000   0.7334   0.00902   0.00458  -0.1737  0.8267  0.8435  -0.7886   0.0000   0.0000   0.0000   0.4860
   0.200   0.7484   0.00878   0.00445  -0.1715  0.8214  0.9447  -0.8030   0.0000   0.0000   0.0000   0.4781
   0.300   0.7642   0.00872   0.00435  -0.1724  0.8191  1.0000  -0.8149   0.0000   0.0000   0.0000   0.4744
   0.400   0.7773   0.00872   0.00429  -0.1728  0.8169  1.0000  -0.8259   0.0000   0.0000   0.0000   0.4709
   0.500   0.7911   0.00872   0.00424  -0.1733  0.8146  1.0000  -0.8372   0.0000   0.0000   0.0000   0.4676
   0.600   0.8056   0.00874   0.00421  -0.1739  0.8123  1.0000  -0.8491   0.0000   0.0000   0.0000   0.4643
   0.700   0.8161   0.00878   0.00422  -0.1738  0.8095  1.0000  -0.8592   0.0000   0.0000   0.0000   0.4612
   0.800   0.8247   0.00881   0.00424  -0.1732  0.8063  1.0000  -0.8690   0.0000   0.0000   0.0000   0.4582
   0.900   0.8345   0.00883   0.00424  -0.1729  0.8030  1.0000  -0.8797   0.0000   0.0000   0.0000   0.4552
   1.000   0.8453   0.00884   0.00423  -0.1728  0.7998  1.0000  -0.8909   0.0000   0.0000   0.0000   0.4523
   1.100   0.8568   0.00884   0.00420  -0.1728  0.7968  1.0000  -0.9036   0.0000   0.0000   0.0000   0.4495
   1.200   0.8688   0.00884   0.00417  -0.1729  0.7939  1.0000  -0.9167   0.0000   0.0000   0.0000   0.4467
   1.300   0.8813   0.00884   0.00414  -0.1731  0.7911  1.0000  -0.9303   0.0000   0.0000   0.0000   0.4440
   1.400   0.8948   0.00885   0.00410  -0.1735  0.7884  1.0000  -0.9450   0.0000   0.0000   0.0000   0.4414
   1.500   0.9083   0.00889   0.00409  -0.1740  0.7855  1.0000  -0.9605   0.0000   0.0000   0.0000   0.4389
   1.600   0.9162   0.00892   0.00413  -0.1733  0.7821  1.0000  -0.9723   0.0000   0.0000   0.0000   0.4363
   1.700   0.9253   0.00894   0.00415  -0.1728  0.7784  1.0000  -0.9860   0.0000   0.0000   0.0000   0.4338
   1.800   0.9353   0.00895   0.00415  -0.1725  0.7746  1.0000  -1.0006   0.0000   0.0000   0.0000   0.4314
   1.900   0.9461   0.00896   0.00414  -0.1723  0.7710  1.0000  -1.0158   0.0000   0.0000   0.0000   0.4290
   2.000   0.9575   0.00897   0.00411  -0.1723  0.7675  1.0000  -1.0323   0.0000   0.0000   0.0000   0.4267
   2.100   0.9701   0.00897   0.00408  -0.1725  0.7642  1.0000  -1.0509   0.0000   0.0000   0.0000   0.4245
   2.200   0.9837   0.00901   0.00405  -0.1730  0.7608  1.0000  -1.0705   0.0000   0.0000   0.0000   0.4223
   2.300   0.9920   0.00904   0.00410  -0.1724  0.7570  1.0000  -1.0865   0.0000   0.0000   0.0000   0.4201
   2.400   1.0007   0.00906   0.00413  -0.1718  0.7528  1.0000  -1.1039   0.0000   0.0000   0.0000   0.4180
   2.500   1.0104   0.00908   0.00414  -0.1714  0.7486  1.0000  -1.1224   0.0000   0.0000   0.0000   0.4158
   2.600   1.0207   0.00910   0.00414  -0.1712  0.7444  1.0000  -1.1439   0.0000   0.0000   0.0000   0.4138
   2.700   1.0322   0.00911   0.00414  -0.1712  0.7405  1.0000  -1.1668   0.0000   0.0000   0.0000   0.4118
   2.800   1.0447   0.00914   0.00412  -0.1714  0.7366  1.0000  -1.1909   0.0000   0.0000   0.0000   0.4099
   2.900   1.0545   0.00918   0.00415  -0.1711  0.7324  1.0000  -1.2122   0.0000   0.0000   0.0000   0.4079
   3.000   1.0627   0.00921   0.00419  -0.1704  0.7274  1.0000  -1.2318   0.0000   0.0000   0.0000   0.4059
   3.100   1.0718   0.00923   0.00421  -0.1699  0.7222  1.0000  -1.2525   0.0000   0.0000   0.0000   0.4040
   3.200   1.0822   0.00925   0.00421  -0.1697  0.7173  1.0000  -1.2747   0.0000   0.0000   0.0000   0.4021
   3.300   1.0935   0.00929   0.00419  -0.1697  0.7127  1.0000  -1.2980   0.0000   0.0000   0.0000   0.4003
   3.400   1.1039   0.00933   0.00421  -0.1695  0.7079  1.0000  -1.3205   0.0000   0.0000   0.0000   0.3986
   3.500   1.1120   0.00936   0.00427  -0.1688  0.7022  1.0000  -1.3404   0.0000   0.0000   0.0000   0.3967
   3.600   1.1212   0.00940   0.00429  -0.1683  0.6965  1.0000  -1.3623   0.0000   0.0000   0.0000   0.3949
   3.700   1.1312   0.00944   0.00430  -0.1680  0.6908  1.0000  -1.3875   0.0000   0.0000   0.0000   0.3932
   3.800   1.1421   0.00949   0.00430  -0.1679  0.6852  1.0000  -1.4139   0.0000   0.0000   0.0000   0.3916
   3.900   1.1503   0.00954   0.00436  -0.1673  0.6791  1.0000  -1.4371   0.0000   0.0000   0.0000   0.3898
   4.000   1.1589   0.00959   0.00440  -0.1667  0.6724  1.0000  -1.4609   0.0000   0.0000   0.0000   0.3881
   4.100   1.1682   0.00965   0.00442  -0.1663  0.6656  1.0000  -1.4857   0.0000   0.0000   0.0000   0.3865
   4.200   1.1782   0.00972   0.00447  -0.1659  0.6589  1.0000  -1.5115   0.0000   0.0000   0.0000   0.3849
   4.300   1.1860   0.00978   0.00454  -0.1652  0.6516  1.0000  -1.5346   0.0000   0.0000   0.0000   0.3832
   4.400   1.1944   0.00985   0.00459  -0.1646  0.6438  1.0000  -1.5600   0.0000   0.0000   0.0000   0.3816
   4.500   1.2034   0.00994   0.00462  -0.1641  0.6363  1.0000  -1.5917   0.0000   0.0000   0.0000   0.3800
   4.600   1.2119   0.01002   0.00469  -0.1635  0.6289  1.0000  -1.6226   0.0000   0.0000   0.0000   0.3785
   4.700   1.2200   0.01009   0.00475  -0.1629  0.6206  1.0000  -1.6532   0.0000   0.0000   0.0000   0.3769
   4.800   1.2283   0.01020   0.00481  -0.1623  0.6126  1.0000  -1.6842   0.0000   0.0000   0.0000   0.3754
   4.900   1.2368   0.01030   0.00488  -0.1617  0.6053  1.0000  -1.7157   0.0000   0.0000   0.0000   0.3739
   5.000   1.2449   0.01038   0.00496  -0.1611  0.5972  1.0000  -1.7467   0.0000   0.0000   0.0000   0.3724
   5.100   1.2527   0.01050   0.00503  -0.1604  0.5888  1.0000  -1.7774   0.0000   0.0000   0.0000   0.3709
   5.200   1.2606   0.01062   0.00511  -0.1597  0.5807  1.0000  -1.8084   0.0000   0.0000   0.0000   0.3694
   5.300   1.2682   0.01072   0.00521  -0.1590  0.5715  1.0000  -1.8390   0.0000   0.0000   0.0000   0.3680
   5.400   1.2750   0.01087   0.00530  -0.1581  0.5617  1.0000  -1.8686   0.0000   0.0000   0.0000   0.3664
   5.500   1.2821   0.01100   0.00539  -0.1572  0.5521  1.0000  -1.8988   0.0000   0.0000   0.0000   0.3650
   5.600   1.2887   0.01114   0.00549  -0.1563  0.5411  1.0000  -1.9282   0.0000   0.0000   0.0000   0.3635
   5.700   1.2946   0.01132   0.00563  -0.1552  0.5308  1.0000  -1.9566   0.0000   0.0000   0.0000   0.3620
   5.800   1.3013   0.01145   0.00575  -0.1544  0.5196  1.0000  -1.9888   0.0000   0.0000   0.0000   0.3606
   5.900   1.3064   0.01164   0.00587  -0.1531  0.5087  1.0000  -2.0193   0.0000   0.0000   0.0000   0.3590
   6.000   1.3126   0.01179   0.00599  -0.1522  0.4984  1.0000  -2.0520   0.0000   0.0000   0.0000   0.3576
   6.100   1.3176   0.01196   0.00611  -0.1509  0.4875  1.0000  -2.0826   0.0000   0.0000   0.0000   0.3561
   6.200   1.3224   0.01215   0.00625  -0.1497  0.4775  1.0000  -2.1130   0.0000   0.0000   0.0000   0.3546
   6.300   1.3278   0.01232   0.00638  -0.1486  0.4661  1.0000  -2.1446   0.0000   0.0000   0.0000   0.3532
   6.400   1.3312   0.01256   0.00655  -0.1471  0.4551  1.0000  -2.1726   0.0000   0.0000   0.0000   0.3516
   6.500   1.3366   0.01273   0.00670  -0.1460  0.4427  1.0000  -2.2044   0.0000   0.0000   0.0000   0.3502
   6.700   1.3443   0.01321   0.00705  -0.1432  0.4170  1.0000  -2.2624   0.0000   0.0000   0.0000   0.3473
   6.800   1.3469   0.01350   0.00725  -0.1416  0.4042  1.0000  -2.2891   0.0000   0.0000   0.0000   0.3457
   6.900   1.3518   0.01373   0.00743  -0.1405  0.3904  1.0000  -2.3205   0.0000   0.0000   0.0000   0.3444
   7.000   1.3547   0.01404   0.00766  -0.1390  0.3778  1.0000  -2.3479   0.0000   0.0000   0.0000   0.3429
   7.100   1.3598   0.01428   0.00785  -0.1379  0.3646  1.0000  -2.3796   0.0000   0.0000   0.0000   0.3416
   7.200   1.3627   0.01459   0.00809  -0.1365  0.3528  1.0000  -2.4073   0.0000   0.0000   0.0000   0.3402
   7.300   1.3678   0.01483   0.00830  -0.1355  0.3406  1.0000  -2.4393   0.0000   0.0000   0.0000   0.3389
   7.500   1.3761   0.01541   0.00879  -0.1331  0.3180  1.0000  -2.5045   0.0000   0.0000   0.0000   0.3363
   7.600   1.3799   0.01573   0.00905  -0.1318  0.3069  1.0000  -2.5377   0.0000   0.0000   0.0000   0.3350
   7.700   1.3848   0.01600   0.00929  -0.1308  0.2968  1.0000  -2.5734   0.0000   0.0000   0.0000   0.3338
   7.800   1.3894   0.01630   0.00954  -0.1298  0.2858  1.0000  -2.6087   0.0000   0.0000   0.0000   0.3326
   7.900   1.3933   0.01664   0.00981  -0.1286  0.2760  1.0000  -2.6425   0.0000   0.0000   0.0000   0.3313
   8.000   1.3986   0.01691   0.01006  -0.1277  0.2659  1.0000  -2.6797   0.0000   0.0000   0.0000   0.3302
   8.100   1.4020   0.01727   0.01036  -0.1265  0.2559  1.0000  -2.7124   0.0000   0.0000   0.0000   0.3289
   8.200   1.4069   0.01756   0.01063  -0.1255  0.2469  1.0000  -2.7497   0.0000   0.0000   0.0000   0.3278
   8.300   1.4113   0.01789   0.01092  -0.1244  0.2371  1.0000  -2.7891   0.0000   0.0000   0.0000   0.3266
   8.400   1.4146   0.01828   0.01124  -0.1233  0.2279  1.0000  -2.8259   0.0000   0.0000   0.0000   0.3254
   8.500   1.4201   0.01857   0.01152  -0.1224  0.2192  1.0000  -2.8686   0.0000   0.0000   0.0000   0.3243
   8.600   1.4240   0.01894   0.01184  -0.1213  0.2101  1.0000  -2.9072   0.0000   0.0000   0.0000   0.3232
   8.700   1.4280   0.01931   0.01217  -0.1203  0.2020  1.0000  -2.9508   0.0000   0.0000   0.0000   0.3221
   8.800   1.4331   0.01962   0.01247  -0.1194  0.1943  1.0000  -2.9977   0.0000   0.0000   0.0000   0.3210
   8.900   1.4367   0.02002   0.01281  -0.1184  0.1865  1.0000  -3.0404   0.0000   0.0000   0.0000   0.3199
   9.000   1.4404   0.02042   0.01318  -0.1173  0.1793  1.0000  -3.0836   0.0000   0.0000   0.0000   0.3188
   9.100   1.4460   0.02072   0.01350  -0.1166  0.1731  1.0000  -3.1381   0.0000   0.0000   0.0000   0.3178
   9.200   1.4504   0.02109   0.01384  -0.1156  0.1667  1.0000  -3.1887   0.0000   0.0000   0.0000   0.3168
   9.300   1.4537   0.02154   0.01424  -0.1146  0.1602  1.0000  -3.2357   0.0000   0.0000   0.0000   0.3157
   9.400   1.4583   0.02190   0.01460  -0.1137  0.1550  1.0000  -3.2873   0.0000   0.0000   0.0000   0.3147
   9.500   1.4637   0.02222   0.01494  -0.1129  0.1502  1.0000  -3.3416   0.0000   0.0000   0.0000   0.3137
   9.600   1.4679   0.02261   0.01531  -0.1120  0.1452  1.0000  -3.3926   0.0000   0.0000   0.0000   0.3127
   9.700   1.4712   0.02307   0.01573  -0.1110  0.1401  1.0000  -3.4406   0.0000   0.0000   0.0000   0.3117
   9.800   1.4733   0.02362   0.01625  -0.1099  0.1345  1.0000  -3.4836   0.0000   0.0000   0.0000   0.3106
   9.900   1.4799   0.02388   0.01655  -0.1093  0.1315  1.0000  -3.5435   0.0000   0.0000   0.0000   0.3097
  10.000   1.4853   0.02422   0.01691  -0.1086  0.1277  1.0000  -3.5993   0.0000   0.0000   0.0000   0.3088
  10.100   1.4895   0.02464   0.01732  -0.1077  0.1238  1.0000  -3.6515   0.0000   0.0000   0.0000   0.3079
  10.200   1.4928   0.02512   0.01777  -0.1068  0.1197  1.0000  -3.7003   0.0000   0.0000   0.0000   0.3069
  10.300   1.4948   0.02570   0.01832  -0.1057  0.1153  1.0000  -3.7440   0.0000   0.0000   0.0000   0.3059
  10.400   1.4981   0.02621   0.01883  -0.1048  0.1119  1.0000  -3.7923   0.0000   0.0000   0.0000   0.3050
  10.500   1.5044   0.02650   0.01917  -0.1042  0.1095  1.0000  -3.8526   0.0000   0.0000   0.0000   0.3042
  10.600   1.5096   0.02687   0.01957  -0.1036  0.1067  1.0000  -3.9094   0.0000   0.0000   0.0000   0.3033
  10.700   1.5139   0.02730   0.02002  -0.1028  0.1038  1.0000  -3.9627   0.0000   0.0000   0.0000   0.3024
  10.800   1.5173   0.02781   0.02053  -0.1020  0.1009  1.0000  -4.0130   0.0000   0.0000   0.0000   0.3016
  10.900   1.5199   0.02838   0.02108  -0.1011  0.0978  1.0000  -4.0600   0.0000   0.0000   0.0000   0.3007
  11.000   1.5208   0.02911   0.02179  -0.1000  0.0943  1.0000  -4.0993   0.0000   0.0000   0.0000   0.2997
  11.100   1.5230   0.02974   0.02244  -0.0990  0.0916  1.0000  -4.1438   0.0000   0.0000   0.0000   0.2988
  11.200   1.5291   0.03006   0.02281  -0.0985  0.0901  1.0000  -4.2053   0.0000   0.0000   0.0000   0.2981
  11.300   1.5343   0.03045   0.02325  -0.0979  0.0881  1.0000  -4.2634   0.0000   0.0000   0.0000   0.2973
  11.400   1.5389   0.03090   0.02372  -0.0973  0.0860  1.0000  -4.3194   0.0000   0.0000   0.0000   0.2965
  11.500   1.5428   0.03140   0.02424  -0.0966  0.0838  1.0000  -4.3729   0.0000   0.0000   0.0000   0.2957
  11.600   1.5462   0.03196   0.02480  -0.0959  0.0817  1.0000  -4.4243   0.0000   0.0000   0.0000   0.2949
  11.700   1.5488   0.03258   0.02541  -0.0951  0.0795  1.0000  -4.4727   0.0000   0.0000   0.0000   0.2941
  11.800   1.5500   0.03334   0.02617  -0.0942  0.0772  1.0000  -4.5141   0.0000   0.0000   0.0000   0.2933
  11.900   1.5489   0.03430   0.02714  -0.0931  0.0746  1.0000  -4.5445   0.0000   0.0000   0.0000   0.2925
  12.000   1.5504   0.03507   0.02794  -0.0922  0.0729  1.0000  -4.5856   0.0000   0.0000   0.0000   0.2917
  12.100   1.5560   0.03546   0.02837  -0.0918  0.0720  1.0000  -4.6472   0.0000   0.0000   0.0000   0.2910
  12.200   1.5611   0.03590   0.02886  -0.0913  0.0709  1.0000  -4.7065   0.0000   0.0000   0.0000   0.2903
  12.300   1.5657   0.03639   0.02939  -0.0908  0.0695  1.0000  -4.7638   0.0000   0.0000   0.0000   0.2896
  12.400   1.5698   0.03692   0.02996  -0.0902  0.0681  1.0000  -4.8195   0.0000   0.0000   0.0000   0.2889
  12.500   1.5735   0.03749   0.03056  -0.0897  0.0667  1.0000  -4.8737   0.0000   0.0000   0.0000   0.2882
  12.600   1.5768   0.03810   0.03120  -0.0891  0.0653  1.0000  -4.9262   0.0000   0.0000   0.0000   0.2875
  12.700   1.5796   0.03877   0.03190  -0.0885  0.0639  1.0000  -4.9768   0.0000   0.0000   0.0000   0.2869
  12.800   1.5819   0.03950   0.03264  -0.0879  0.0625  1.0000  -5.0252   0.0000   0.0000   0.0000   0.2862
  12.900   1.5832   0.04033   0.03347  -0.0872  0.0611  1.0000  -5.0687   0.0000   0.0000   0.0000   0.2855
  13.000   1.5831   0.04132   0.03448  -0.0865  0.0595  1.0000  -5.1039   0.0000   0.0000   0.0000   0.2849
  13.100   1.5814   0.04250   0.03569  -0.0856  0.0579  1.0000  -5.1299   0.0000   0.0000   0.0000   0.2842
  13.200   1.5815   0.04353   0.03675  -0.0849  0.0566  1.0000  -5.1641   0.0000   0.0000   0.0000   0.2835
  13.300   1.5863   0.04404   0.03732  -0.0845  0.0561  1.0000  -5.2238   0.0000   0.0000   0.0000   0.2829
  13.400   1.5906   0.04460   0.03793  -0.0841  0.0553  1.0000  -5.2817   0.0000   0.0000   0.0000   0.2823
  13.500   1.5944   0.04523   0.03861  -0.0837  0.0545  1.0000  -5.3371   0.0000   0.0000   0.0000   0.2817
  13.600   1.5976   0.04592   0.03934  -0.0833  0.0536  1.0000  -5.3958   0.0000   0.0000   0.0000   0.2812
  13.700   1.6005   0.04665   0.04012  -0.0829  0.0526  1.0000  -5.4530   0.0000   0.0000   0.0000   0.2806
  13.800   1.6032   0.04740   0.04091  -0.0825  0.0516  1.0000  -5.5098   0.0000   0.0000   0.0000   0.2800
  13.900   1.6059   0.04817   0.04172  -0.0821  0.0507  1.0000  -5.5663   0.0000   0.0000   0.0000   0.2795
  14.000   1.6084   0.04897   0.04255  -0.0817  0.0498  1.0000  -5.6222   0.0000   0.0000   0.0000   0.2790
  14.100   1.6101   0.04986   0.04347  -0.0813  0.0489  1.0000  -5.6743   0.0000   0.0000   0.0000   0.2785
  14.200   1.6112   0.05083   0.04446  -0.0809  0.0480  1.0000  -5.7230   0.0000   0.0000   0.0000   0.2780
  14.300   1.6116   0.05189   0.04553  -0.0805  0.0471  1.0000  -5.7680   0.0000   0.0000   0.0000   0.2775
  14.400   1.6114   0.05305   0.04671  -0.0801  0.0461  1.0000  -5.8082   0.0000   0.0000   0.0000   0.2770
  14.500   1.6101   0.05436   0.04805  -0.0796  0.0451  1.0000  -5.8405   0.0000   0.0000   0.0000   0.2766
  14.600   1.6073   0.05590   0.04963  -0.0791  0.0439  1.0000  -5.8613   0.0000   0.0000   0.0000   0.2761
  14.700   1.6059   0.05731   0.05109  -0.0787  0.0430  1.0000  -5.8885   0.0000   0.0000   0.0000   0.2757
  14.800   1.6087   0.05815   0.05199  -0.0784  0.0427  1.0000  -5.9451   0.0000   0.0000   0.0000   0.2752
  14.900   1.6112   0.05903   0.05293  -0.0782  0.0422  1.0000  -6.0239   0.0000   0.0000   0.0000   0.2748
  15.000   1.6134   0.05996   0.05392  -0.0780  0.0417  1.0000  -6.1011   0.0000   0.0000   0.0000   0.2744


