xflr5 v6.61

 Calculated polar for: SG6043

 1 1 Reynolds number fixed          Mach number fixed         

 xtrf =   1.000 (top)        1.000 (bottom)
 Mach =   0.000     Re =     0.075 e 6     Ncrit =   9.000

  alpha     CL        CD       CDp       Cm    Top Xtr Bot Xtr   Cpmin    Chinge    XCp    
 ------- -------- --------- --------- -------- ------- ------- -------- --------- ---------
 -10.000  -0.3404   0.14497   0.13939  -0.0336  1.0000  0.0776  -1.4665   0.0000   0.0000   0.0000   0.1413
  -9.900  -0.3452   0.14519   0.13965  -0.0334  1.0000  0.0778  -1.4889   0.0000   0.0000   0.0000   0.1435
  -9.800  -0.3497   0.14533   0.13983  -0.0332  1.0000  0.0779  -1.5101   0.0000   0.0000   0.0000   0.1457
  -9.700  -0.3543   0.14541   0.13994  -0.0330  1.0000  0.0780  -1.5305   0.0000   0.0000   0.0000   0.1479
  -9.600  -0.3586   0.14541   0.13997  -0.0327  1.0000  0.0781  -1.5496   0.0000   0.0000   0.0000   0.1500
  -9.500  -0.3628   0.14535   0.13994  -0.0324  1.0000  0.0782  -1.5677   0.0000   0.0000   0.0000   0.1522
  -9.400  -0.3670   0.14524   0.13986  -0.0320  1.0000  0.0783  -1.5854   0.0000   0.0000   0.0000   0.1544
  -9.300  -0.3713   0.14508   0.13974  -0.0317  1.0000  0.0783  -1.6028   0.0000   0.0000   0.0000   0.1566
  -9.200  -0.3756   0.14490   0.13959  -0.0313  1.0000  0.0784  -1.6200   0.0000   0.0000   0.0000   0.1589
  -9.100  -0.3801   0.14469   0.13942  -0.0309  1.0000  0.0784  -1.6369   0.0000   0.0000   0.0000   0.1612
  -9.000  -0.3847   0.14446   0.13922  -0.0304  1.0000  0.0785  -1.6537   0.0000   0.0000   0.0000   0.1636
  -8.900  -0.3450   0.13076   0.12544  -0.0286  1.0000  0.0813  -1.5089   0.0000   0.0000   0.0000   0.1585
  -8.800  -0.3399   0.12882   0.12351  -0.0276  1.0000  0.0822  -1.4783   0.0000   0.0000   0.0000   0.1600
  -8.700  -0.3375   0.12747   0.12217  -0.0268  1.0000  0.0830  -1.4605   0.0000   0.0000   0.0000   0.1619
  -8.600  -0.3364   0.12637   0.12108  -0.0261  1.0000  0.0838  -1.4488   0.0000   0.0000   0.0000   0.1638
  -8.500  -0.3360   0.12540   0.12013  -0.0254  1.0000  0.0846  -1.4409   0.0000   0.0000   0.0000   0.1658
  -8.400  -0.3362   0.12451   0.11926  -0.0248  1.0000  0.0854  -1.4355   0.0000   0.0000   0.0000   0.1678
  -8.300  -0.3367   0.12368   0.11845  -0.0242  1.0000  0.0861  -1.4321   0.0000   0.0000   0.0000   0.1698
  -8.200  -0.3376   0.12290   0.11768  -0.0236  1.0000  0.0869  -1.4303   0.0000   0.0000   0.0000   0.1718
  -8.100  -0.3387   0.12214   0.11695  -0.0231  1.0000  0.0877  -1.4297   0.0000   0.0000   0.0000   0.1738
  -8.000  -0.3400   0.12141   0.11624  -0.0225  1.0000  0.0885  -1.4302   0.0000   0.0000   0.0000   0.1759
  -7.900  -0.3416   0.12070   0.11555  -0.0220  1.0000  0.0893  -1.4317   0.0000   0.0000   0.0000   0.1778
  -7.800  -0.3434   0.12000   0.11488  -0.0215  1.0000  0.0901  -1.4341   0.0000   0.0000   0.0000   0.1798
  -7.700  -0.3453   0.11933   0.11423  -0.0210  1.0000  0.0909  -1.4374   0.0000   0.0000   0.0000   0.1818
  -7.600  -0.3475   0.11868   0.11360  -0.0205  1.0000  0.0917  -1.4415   0.0000   0.0000   0.0000   0.1838
  -7.500  -0.3499   0.11805   0.11297  -0.0200  1.0000  0.0925  -1.4466   0.0000   0.0000   0.0000   0.1858
  -7.400  -0.3526   0.11745   0.11240  -0.0195  1.0000  0.0933  -1.4526   0.0000   0.0000   0.0000   0.1877
  -7.300  -0.3555   0.11688   0.11185  -0.0190  1.0000  0.0941  -1.4596   0.0000   0.0000   0.0000   0.1897
  -7.200  -0.3588   0.11635   0.11135  -0.0186  1.0000  0.0949  -1.4678   0.0000   0.0000   0.0000   0.1917
  -7.100  -0.3625   0.11587   0.11091  -0.0181  1.0000  0.0956  -1.4774   0.0000   0.0000   0.0000   0.1938
  -7.000  -0.3668   0.11547   0.11053  -0.0176  1.0000  0.0964  -1.4887   0.0000   0.0000   0.0000   0.1959
  -6.900  -0.3716   0.11514   0.11024  -0.0171  1.0000  0.0971  -1.5019   0.0000   0.0000   0.0000   0.1981
  -6.800  -0.3773   0.11491   0.11004  -0.0166  1.0000  0.0977  -1.5171   0.0000   0.0000   0.0000   0.2004
  -6.700  -0.3837   0.11478   0.10994  -0.0160  1.0000  0.0983  -1.5341   0.0000   0.0000   0.0000   0.2030
  -6.600  -0.3909   0.11472   0.10992  -0.0153  1.0000  0.0988  -1.5526   0.0000   0.0000   0.0000   0.2057
  -6.500  -0.3987   0.11472   0.10995  -0.0146  1.0000  0.0992  -1.5722   0.0000   0.0000   0.0000   0.2085
  -6.400  -0.4063   0.11473   0.11000  -0.0141  1.0000  0.0996  -1.5938   0.0000   0.0000   0.0000   0.2104
  -6.300  -0.4124   0.11472   0.11002  -0.0147  1.0000  0.1001  -1.6203   0.0000   0.0000   0.0000   0.2098
  -6.200  -0.4175   0.11470   0.11005  -0.0159  1.0000  0.1005  -1.6503   0.0000   0.0000   0.0000   0.2075
  -6.100  -0.4211   0.11460   0.10998  -0.0177  1.0000  0.1010  -1.6824   0.0000   0.0000   0.0000   0.2037
  -6.000  -0.4230   0.11435   0.10974  -0.0200  1.0000  0.1013  -1.7144   0.0000   0.0000   0.0000   0.1985
  -5.900  -0.4231   0.11388   0.10927  -0.0226  1.0000  0.1016  -1.7439   0.0000   0.0000   0.0000   0.1927
  -5.800  -0.4222   0.11320   0.10859  -0.0251  1.0000  0.1018  -1.7720   0.0000   0.0000   0.0000   0.1865
  -5.700  -0.4203   0.11235   0.10772  -0.0277  1.0000  0.1020  -1.7985   0.0000   0.0000   0.0000   0.1804
  -5.600  -0.4177   0.11140   0.10674  -0.0297  1.0000  0.1021  -1.8177   0.0000   0.0000   0.0000   0.1751
  -5.500  -0.4217   0.10736   0.10281  -0.0269  1.0000  0.1029  -1.8070   0.0000   0.0000   0.0000   0.1824
  -5.400  -0.4240   0.10472   0.10020  -0.0232  1.0000  0.1037  -1.7717   0.0000   0.0000   0.0000   0.1915
  -5.300  -0.4244   0.10291   0.09842  -0.0201  1.0000  0.1045  -1.7336   0.0000   0.0000   0.0000   0.1990
  -5.200  -0.4239   0.10147   0.09700  -0.0176  1.0000  0.1053  -1.6991   0.0000   0.0000   0.0000   0.2048
  -5.100  -0.4231   0.10023   0.09577  -0.0157  1.0000  0.1062  -1.6696   0.0000   0.0000   0.0000   0.2092
  -5.000  -0.4221   0.09910   0.09466  -0.0143  1.0000  0.1072  -1.6451   0.0000   0.0000   0.0000   0.2125
  -4.900  -0.4211   0.09805   0.09362  -0.0134  1.0000  0.1082  -1.6251   0.0000   0.0000   0.0000   0.2147
  -4.800  -0.4201   0.09702   0.09261  -0.0127  1.0000  0.1093  -1.6089   0.0000   0.0000   0.0000   0.2162
  -4.700  -0.4190   0.09601   0.09161  -0.0124  1.0000  0.1105  -1.5960   0.0000   0.0000   0.0000   0.2170
  -4.600  -0.4178   0.09499   0.09060  -0.0123  1.0000  0.1118  -1.5857   0.0000   0.0000   0.0000   0.2171
  -4.500  -0.4163   0.09395   0.08957  -0.0125  1.0000  0.1133  -1.5776   0.0000   0.0000   0.0000   0.2166
  -4.400  -0.4144   0.09288   0.08851  -0.0130  1.0000  0.1148  -1.5715   0.0000   0.0000   0.0000   0.2154
  -4.300  -0.4121   0.09177   0.08741  -0.0138  1.0000  0.1166  -1.5677   0.0000   0.0000   0.0000   0.2133
  -4.200  -0.4088   0.09062   0.08625  -0.0151  1.0000  0.1186  -1.5667   0.0000   0.0000   0.0000   0.2099
  -4.100  -0.4037   0.08942   0.08504  -0.0174  1.0000  0.1212  -1.5719   0.0000   0.0000   0.0000   0.2037
  -4.000  -0.3609   0.08883   0.08407  -0.0401  1.0000  0.1283  -1.7135   0.0000   0.0000   0.0000   0.1356
  -3.900  -0.3647   0.08560   0.08095  -0.0378  1.0000  0.1292  -1.6938   0.0000   0.0000   0.0000   0.1430
  -3.800  -0.3664   0.08360   0.07902  -0.0358  1.0000  0.1300  -1.6673   0.0000   0.0000   0.0000   0.1492
  -3.700  -0.3672   0.08216   0.07764  -0.0336  1.0000  0.1308  -1.6374   0.0000   0.0000   0.0000   0.1552
  -3.600  -0.3671   0.08096   0.07648  -0.0318  1.0000  0.1318  -1.6080   0.0000   0.0000   0.0000   0.1601
  -3.500  -0.3663   0.07992   0.07547  -0.0302  1.0000  0.1329  -1.5788   0.0000   0.0000   0.0000   0.1643
  -3.400  -0.3645   0.07895   0.07452  -0.0291  1.0000  0.1344  -1.5513   0.0000   0.0000   0.0000   0.1671
  -3.300  -0.3616   0.07800   0.07358  -0.0284  1.0000  0.1361  -1.5256   0.0000   0.0000   0.0000   0.1684
  -3.200  -0.3574   0.07701   0.07260  -0.0282  1.0000  0.1384  -1.5025   0.0000   0.0000   0.0000   0.1679
  -3.100  -0.3051   0.07636   0.07146  -0.0470  1.0000  0.1554  -1.5538   0.0000   0.0000   0.0000   0.0924
  -3.000  -0.3069   0.07359   0.06881  -0.0454  1.0000  0.1564  -1.5321   0.0000   0.0000   0.0000   0.0987
  -2.900  -0.3071   0.07188   0.06717  -0.0438  1.0000  0.1575  -1.5043   0.0000   0.0000   0.0000   0.1042
  -2.800  -0.3064   0.07062   0.06598  -0.0422  1.0000  0.1587  -1.4744   0.0000   0.0000   0.0000   0.1091
  -2.700  -0.3046   0.06960   0.06497  -0.0408  1.0000  0.1602  -1.4438   0.0000   0.0000   0.0000   0.1128
  -2.600  -0.3022   0.06875   0.06415  -0.0396  1.0000  0.1624  -1.4131   0.0000   0.0000   0.0000   0.1158
  -2.500  -0.2984   0.06799   0.06341  -0.0389  1.0000  0.1658  -1.3827   0.0000   0.0000   0.0000   0.1166
  -2.400  -0.2890   0.06722   0.06261  -0.0401  1.0000  0.1732  -1.3686   0.0000   0.0000   0.0000   0.1082
  -2.300  -0.2208   0.06517   0.06022  -0.0567  0.9871  0.2115  -1.3466   0.0000   0.0000   0.0000  -0.0111
  -2.200  -0.2156   0.06349   0.05866  -0.0552  0.9825  0.2143  -1.3171   0.0000   0.0000   0.0000  -0.0104
  -2.100  -0.2050   0.06257   0.05780  -0.0548  0.9785  0.2193  -1.2875   0.0000   0.0000   0.0000  -0.0218
  -1.600  -0.0072   0.04824   0.04142  -0.0927  0.9601  0.1308  -1.5307   0.0000   0.0000   0.0000  -12.8192
  -1.500   0.0268   0.04568   0.03825  -0.0964  0.9582  0.1040  -1.6244   0.0000   0.0000   0.0000   3.8755
  -1.400   0.0491   0.04493   0.03736  -0.0985  0.9560  0.0998  -1.5978   0.0000   0.0000   0.0000   2.2714
  -1.300   0.0652   0.04359   0.03587  -0.1000  0.9527  0.0977  -1.5859   0.0000   0.0000   0.0000   1.7967
  -1.200   0.0782   0.04259   0.03471  -0.1007  0.9494  0.0961  -1.5750   0.0000   0.0000   0.0000   1.5483
  -1.100   0.0942   0.04172   0.03366  -0.1019  0.9463  0.0948  -1.5610   0.0000   0.0000   0.0000   1.3394
  -1.000   0.1119   0.04097   0.03269  -0.1032  0.9434  0.0940  -1.5431   0.0000   0.0000   0.0000   1.1783
  -0.900   0.1310   0.04034   0.03185  -0.1047  0.9406  0.0940  -1.5195   0.0000   0.0000   0.0000   1.0540
  -0.800   0.1510   0.04002   0.03132  -0.1062  0.9380  0.0967  -1.4832   0.0000   0.0000   0.0000   0.9576
  -0.700   0.1725   0.04005   0.03113  -0.1079  0.9356  0.1006  -1.4388   0.0000   0.0000   0.0000   0.8786
  -0.600   0.1944   0.03948   0.03037  -0.1098  0.9337  0.1041  -1.4043   0.0000   0.0000   0.0000   0.8174
  -0.500   0.1978   0.03883   0.02970  -0.1089  0.9293  0.1058  -1.3888   0.0000   0.0000   0.0000   0.8027
  -0.400   0.2083   0.03840   0.02926  -0.1090  0.9260  0.1084  -1.3595   0.0000   0.0000   0.0000   0.7751
  -0.300   0.2212   0.03811   0.02894  -0.1094  0.9229  0.1121  -1.3251   0.0000   0.0000   0.0000   0.7461
  -0.200   0.2361   0.03788   0.02865  -0.1100  0.9199  0.1175  -1.2982   0.0000   0.0000   0.0000   0.7172
  -0.100   0.2531   0.03769   0.02833  -0.1108  0.9172  0.1253  -1.2954   0.0000   0.0000   0.0000   0.6889
   0.000   0.2713   0.03727   0.02801  -0.1121  0.9149  0.1415  -1.2799   0.0000   0.0000   0.0000   0.6639
   0.100   0.2914   0.03709   0.02790  -0.1137  0.9128  0.1696  -1.2579   0.0000   0.0000   0.0000   0.6404
   0.200   0.3139   0.03702   0.02788  -0.1155  0.9110  0.2101  -1.2284   0.0000   0.0000   0.0000   0.6181
   0.300   0.3121   0.03668   0.02765  -0.1137  0.9055  0.2225  -1.2203   0.0000   0.0000   0.0000   0.6144
   0.400   0.3236   0.03642   0.02749  -0.1139  0.9018  0.2630  -1.1985   0.0000   0.0000   0.0000   0.6020
   0.500   0.3370   0.03481   0.02776  -0.1140  0.9004  0.6788  -1.1771   0.0000   0.0000   0.0000   0.5879
   0.700   0.3549   0.03446   0.02744  -0.1123  0.8929  1.0000  -1.1032   0.0000   0.0000   0.0000   0.5658
   0.800   0.3741   0.03479   0.02755  -0.1138  0.8902  1.0000  -1.0333   0.0000   0.0000   0.0000   0.5531
   0.900   0.3957   0.03519   0.02776  -0.1156  0.8879  1.0000  -0.9557   0.0000   0.0000   0.0000   0.5409
   1.000   0.4003   0.03539   0.02789  -0.1148  0.8830  1.0000  -0.9205   0.0000   0.0000   0.0000   0.5355
   1.100   0.4044   0.03556   0.02799  -0.1140  0.8778  1.0000  -0.8869   0.0000   0.0000   0.0000   0.5304
   1.200   0.4156   0.03578   0.02810  -0.1142  0.8736  1.0000  -0.8357   0.0000   0.0000   0.0000   0.5232
   1.300   0.4304   0.03603   0.02824  -0.1150  0.8701  1.0000  -0.7747   0.0000   0.0000   0.0000   0.5154
   1.400   0.4481   0.03628   0.02838  -0.1162  0.8671  1.0000  -0.7070   0.0000   0.0000   0.0000   0.5074
   1.500   0.4682   0.03654   0.02854  -0.1177  0.8646  1.0000  -0.6336   0.0000   0.0000   0.0000   0.4993
   1.600   0.4905   0.03686   0.02875  -0.1195  0.8625  1.0000  -0.6417   0.0000   0.0000   0.0000   0.4915
   1.700   0.4846   0.03710   0.02898  -0.1173  0.8556  1.0000  -0.6388   0.0000   0.0000   0.0000   0.4897
   1.800   0.4917   0.03732   0.02916  -0.1169  0.8504  1.0000  -0.6455   0.0000   0.0000   0.0000   0.4853
   1.900   0.5050   0.03753   0.02931  -0.1174  0.8464  1.0000  -0.6569   0.0000   0.0000   0.0000   0.4799
   2.000   0.5215   0.03772   0.02943  -0.1184  0.8432  1.0000  -0.6706   0.0000   0.0000   0.0000   0.4742
   2.100   0.5408   0.03789   0.02953  -0.1197  0.8405  1.0000  -0.6865   0.0000   0.0000   0.0000   0.4684
   2.200   0.5623   0.03807   0.02963  -0.1213  0.8383  1.0000  -0.7046   0.0000   0.0000   0.0000   0.4627
   2.400   0.5672   0.03872   0.03024  -0.1193  0.8265  1.0000  -0.7132   0.0000   0.0000   0.0000   0.4570
   2.500   0.5791   0.03891   0.03039  -0.1195  0.8220  1.0000  -0.7248   0.0000   0.0000   0.0000   0.4530
   2.600   0.5956   0.03903   0.03047  -0.1204  0.8185  1.0000  -0.7400   0.0000   0.0000   0.0000   0.4486
   2.700   0.6146   0.03911   0.03051  -0.1215  0.8157  1.0000  -0.7581   0.0000   0.0000   0.0000   0.4441
   2.800   0.6360   0.03917   0.03052  -0.1230  0.8135  1.0000  -0.7789   0.0000   0.0000   0.0000   0.4396
   2.900   0.6593   0.03921   0.03053  -0.1247  0.8117  1.0000  -0.8014   0.0000   0.0000   0.0000   0.4353
   3.000   0.6422   0.03992   0.03125  -0.1212  0.8014  1.0000  -0.7903   0.0000   0.0000   0.0000   0.4347
   3.100   0.6538   0.04007   0.03139  -0.1213  0.7967  1.0000  -0.8039   0.0000   0.0000   0.0000   0.4314
   3.200   0.6704   0.04011   0.03140  -0.1221  0.7931  1.0000  -0.8227   0.0000   0.0000   0.0000   0.4278
   3.300   0.6900   0.04008   0.03136  -0.1232  0.7904  1.0000  -0.8444   0.0000   0.0000   0.0000   0.4242
   3.400   0.7119   0.03999   0.03125  -0.1246  0.7882  1.0000  -0.8683   0.0000   0.0000   0.0000   0.4205
   3.500   0.7354   0.03986   0.03110  -0.1262  0.7864  1.0000  -0.8958   0.0000   0.0000   0.0000   0.4169
   3.600   0.7166   0.04085   0.03210  -0.1226  0.7752  1.0000  -0.8825   0.0000   0.0000   0.0000   0.4163
   3.700   0.7292   0.04093   0.03217  -0.1228  0.7706  1.0000  -0.9000   0.0000   0.0000   0.0000   0.4135
   3.800   0.7471   0.04084   0.03208  -0.1236  0.7672  1.0000  -0.9228   0.0000   0.0000   0.0000   0.4104
   3.900   0.7677   0.04067   0.03189  -0.1247  0.7647  1.0000  -0.9501   0.0000   0.0000   0.0000   0.4073
   4.000   0.7903   0.04039   0.03161  -0.1260  0.7626  1.0000  -0.9810   0.0000   0.0000   0.0000   0.4042
   4.100   0.8151   0.04002   0.03125  -0.1275  0.7609  1.0000  -1.0146   0.0000   0.0000   0.0000   0.4011
   4.300   0.8079   0.04129   0.03253  -0.1240  0.7440  1.0000  -1.0200   0.0000   0.0000   0.0000   0.3979
   4.400   0.8272   0.04102   0.03227  -0.1249  0.7410  1.0000  -1.0513   0.0000   0.0000   0.0000   0.3952
   4.500   0.8497   0.04058   0.03185  -0.1260  0.7386  1.0000  -1.0867   0.0000   0.0000   0.0000   0.3924
   4.600   0.8746   0.04001   0.03132  -0.1273  0.7368  1.0000  -1.1256   0.0000   0.0000   0.0000   0.3896
   4.700   0.9012   0.03932   0.03066  -0.1289  0.7354  1.0000  -1.1668   0.0000   0.0000   0.0000   0.3869
   5.000   0.9142   0.04021   0.03159  -0.1261  0.7148  1.0000  -1.2078   0.0000   0.0000   0.0000   0.3814
   5.100   0.9395   0.03941   0.03082  -0.1273  0.7130  1.0000  -1.2486   0.0000   0.0000   0.0000   0.3789
   5.200   0.9658   0.03850   0.02995  -0.1286  0.7114  1.0000  -1.2960   0.0000   0.0000   0.0000   0.3764
   5.300   0.9930   0.03749   0.02898  -0.1299  0.7102  1.0000  -1.3451   0.0000   0.0000   0.0000   0.3739
   5.700   1.0386   0.03667   0.02834  -0.1284  0.6881  1.0000  -1.4552   0.0000   0.0000   0.0000   0.3662
   5.800   1.0688   0.03526   0.02699  -0.1299  0.6868  1.0000  -1.5172   0.0000   0.0000   0.0000   0.3640
   5.900   1.1027   0.03369   0.02548  -0.1320  0.6855  1.0000  -1.5932   0.0000   0.0000   0.0000   0.3620
   6.100   1.0967   0.03486   0.02669  -0.1279  0.6673  1.0000  -1.6130   0.0000   0.0000   0.0000   0.3587
   6.200   1.1288   0.03329   0.02519  -0.1296  0.6651  1.0000  -1.6871   0.0000   0.0000   0.0000   0.3567
   6.300   1.1668   0.03148   0.02345  -0.1322  0.6628  1.0000  -1.7727   0.0000   0.0000   0.0000   0.3551
   6.400   1.2136   0.02946   0.02150  -0.1363  0.6601  1.0000  -1.8746   0.0000   0.0000   0.0000   0.3539
   6.500   1.1817   0.03134   0.02338  -0.1302  0.6478  1.0000  -1.8327   0.0000   0.0000   0.0000   0.3517
   6.600   1.2115   0.03002   0.02212  -0.1319  0.6422  1.0000  -1.9046   0.0000   0.0000   0.0000   0.3502
   6.700   1.2586   0.02805   0.02026  -0.1361  0.6367  1.0000  -2.0160   0.0000   0.0000   0.0000   0.3493
   6.800   1.2655   0.02799   0.02024  -0.1350  0.6281  1.0000  -2.0498   0.0000   0.0000   0.0000   0.3477
   6.900   1.2724   0.02788   0.02016  -0.1339  0.6187  1.0000  -2.0839   0.0000   0.0000   0.0000   0.3461
   7.000   1.3163   0.02627   0.01853  -0.1379  0.6092  1.0000  -2.1956   0.0000   0.0000   0.0000   0.3454
   7.100   1.3090   0.02679   0.01911  -0.1347  0.5990  1.0000  -2.2004   0.0000   0.0000   0.0000   0.3435
   7.200   1.3299   0.02618   0.01848  -0.1356  0.5878  1.0000  -2.2649   0.0000   0.0000   0.0000   0.3423
   7.300   1.3399   0.02606   0.01836  -0.1349  0.5766  1.0000  -2.3064   0.0000   0.0000   0.0000   0.3409
   7.400   1.3497   0.02593   0.01822  -0.1342  0.5644  1.0000  -2.3479   0.0000   0.0000   0.0000   0.3395
   7.500   1.3622   0.02578   0.01803  -0.1339  0.5518  1.0000  -2.3952   0.0000   0.0000   0.0000   0.3382
   7.600   1.3688   0.02580   0.01805  -0.1328  0.5389  1.0000  -2.4330   0.0000   0.0000   0.0000   0.3367
   7.700   1.3786   0.02580   0.01805  -0.1321  0.5254  1.0000  -2.4796   0.0000   0.0000   0.0000   0.3354
   7.800   1.3861   0.02585   0.01806  -0.1311  0.5116  1.0000  -2.5212   0.0000   0.0000   0.0000   0.3340
   7.900   1.3915   0.02603   0.01820  -0.1299  0.4977  1.0000  -2.5576   0.0000   0.0000   0.0000   0.3326
   8.000   1.4026   0.02606   0.01810  -0.1295  0.4823  1.0000  -2.6084   0.0000   0.0000   0.0000   0.3314
   8.100   1.4015   0.02640   0.01846  -0.1273  0.4690  1.0000  -2.6291   0.0000   0.0000   0.0000   0.3297
   8.200   1.4105   0.02657   0.01847  -0.1266  0.4534  1.0000  -2.6756   0.0000   0.0000   0.0000   0.3285
   8.300   1.4096   0.02694   0.01884  -0.1244  0.4399  1.0000  -2.6994   0.0000   0.0000   0.0000   0.3269
   8.400   1.4154   0.02724   0.01901  -0.1233  0.4249  1.0000  -2.7419   0.0000   0.0000   0.0000   0.3256
   8.500   1.4169   0.02761   0.01933  -0.1216  0.4109  1.0000  -2.7727   0.0000   0.0000   0.0000   0.3241
   8.600   1.4202   0.02803   0.01965  -0.1202  0.3966  1.0000  -2.8081   0.0000   0.0000   0.0000   0.3228
   8.700   1.4239   0.02844   0.01994  -0.1189  0.3826  1.0000  -2.8448   0.0000   0.0000   0.0000   0.3215
   8.800   1.4257   0.02893   0.02039  -0.1174  0.3692  1.0000  -2.8764   0.0000   0.0000   0.0000   0.3202
   8.900   1.4307   0.02940   0.02070  -0.1163  0.3557  1.0000  -2.9215   0.0000   0.0000   0.0000   0.3190
   9.000   1.4313   0.02994   0.02123  -0.1147  0.3433  1.0000  -2.9514   0.0000   0.0000   0.0000   0.3176
   9.100   1.4360   0.03046   0.02159  -0.1136  0.3306  1.0000  -2.9957   0.0000   0.0000   0.0000   0.3165
   9.200   1.4371   0.03103   0.02215  -0.1121  0.3191  1.0000  -3.0270   0.0000   0.0000   0.0000   0.3152
   9.300   1.4403   0.03156   0.02263  -0.1109  0.3079  1.0000  -3.0661   0.0000   0.0000   0.0000   0.3140
   9.400   1.4440   0.03218   0.02318  -0.1098  0.2967  1.0000  -3.1055   0.0000   0.0000   0.0000   0.3129
   9.500   1.4459   0.03273   0.02371  -0.1085  0.2866  1.0000  -3.1397   0.0000   0.0000   0.0000   0.3118
   9.600   1.4532   0.03340   0.02420  -0.1080  0.2758  1.0000  -3.1909   0.0000   0.0000   0.0000   0.3109
   9.700   1.4542   0.03398   0.02485  -0.1066  0.2671  1.0000  -3.2206   0.0000   0.0000   0.0000   0.3097
   9.800   1.4586   0.03456   0.02535  -0.1056  0.2583  1.0000  -3.2632   0.0000   0.0000   0.0000   0.3087
   9.900   1.4655   0.03528   0.02598  -0.1051  0.2491  1.0000  -3.3160   0.0000   0.0000   0.0000   0.3078
  10.000   1.4672   0.03586   0.02663  -0.1038  0.2415  1.0000  -3.3523   0.0000   0.0000   0.0000   0.3067
  10.100   1.4717   0.03645   0.02714  -0.1030  0.2340  1.0000  -3.4006   0.0000   0.0000   0.0000   0.3057
  10.200   1.4805   0.03723   0.02782  -0.1028  0.2256  1.0000  -3.4607   0.0000   0.0000   0.0000   0.3050
  10.300   1.4821   0.03783   0.02853  -0.1015  0.2194  1.0000  -3.4953   0.0000   0.0000   0.0000   0.3039
  10.400   1.4864   0.03844   0.02912  -0.1006  0.2130  1.0000  -3.5416   0.0000   0.0000   0.0000   0.3030
  10.500   1.5042   0.03941   0.02985  -0.1018  0.2039  1.0000  -3.6318   0.0000   0.0000   0.0000   0.3028
  10.600   1.5048   0.04004   0.03065  -0.1004  0.1997  1.0000  -3.6610   0.0000   0.0000   0.0000   0.3016
  10.700   1.5080   0.04071   0.03141  -0.0993  0.1946  1.0000  -3.7004   0.0000   0.0000   0.0000   0.3006
  10.800   1.5131   0.04135   0.03205  -0.0986  0.1893  1.0000  -3.7485   0.0000   0.0000   0.0000   0.2998
  10.900   1.5348   0.04251   0.03297  -0.1004  0.1803  1.0000  -3.8529   0.0000   0.0000   0.0000   0.2998
  11.000   1.5330   0.04311   0.03376  -0.0987  0.1775  1.0000  -3.8749   0.0000   0.0000   0.0000   0.2986
  11.100   1.5335   0.04379   0.03457  -0.0973  0.1738  1.0000  -3.9046   0.0000   0.0000   0.0000   0.2975
  11.200   1.5360   0.04447   0.03533  -0.0962  0.1696  1.0000  -3.9427   0.0000   0.0000   0.0000   0.2966
  11.300   1.5409   0.04511   0.03597  -0.0955  0.1652  1.0000  -3.9914   0.0000   0.0000   0.0000   0.2958
  11.400   1.5543   0.04598   0.03670  -0.0961  0.1599  1.0000  -4.0699   0.0000   0.0000   0.0000   0.2954
  11.500   1.5683   0.04740   0.03817  -0.0967  0.1552  1.0000  -4.1366   0.0000   0.0000   0.0000   0.2951
  11.600   1.5691   0.04820   0.03914  -0.0954  0.1527  1.0000  -4.1638   0.0000   0.0000   0.0000   0.2941
  11.700   1.5705   0.04904   0.04012  -0.0943  0.1500  1.0000  -4.1936   0.0000   0.0000   0.0000   0.2931
  11.800   1.5730   0.04987   0.04105  -0.0933  0.1470  1.0000  -4.2285   0.0000   0.0000   0.0000   0.2922
  11.900   1.5767   0.05065   0.04187  -0.0925  0.1439  1.0000  -4.2701   0.0000   0.0000   0.0000   0.2914
  12.000   1.5831   0.05137   0.04257  -0.0920  0.1405  1.0000  -4.3244   0.0000   0.0000   0.0000   0.2907
  12.100   1.6071   0.05346   0.04449  -0.0944  0.1341  1.0000  -4.4300   0.0000   0.0000   0.0000   0.2911
  12.200   1.6035   0.05418   0.04537  -0.0926  0.1329  1.0000  -4.4438   0.0000   0.0000   0.0000   0.2900
  12.300   1.6008   0.05502   0.04638  -0.0910  0.1315  1.0000  -4.4591   0.0000   0.0000   0.0000   0.2889
  12.400   1.5990   0.05598   0.04749  -0.0896  0.1299  1.0000  -4.4762   0.0000   0.0000   0.0000   0.2879
  12.500   1.5983   0.05705   0.04871  -0.0883  0.1282  1.0000  -4.4953   0.0000   0.0000   0.0000   0.2870
  12.600   1.5982   0.05816   0.04995  -0.0872  0.1265  1.0000  -4.5162   0.0000   0.0000   0.0000   0.2862
  12.700   1.5975   0.05926   0.05118  -0.0861  0.1248  1.0000  -4.5362   0.0000   0.0000   0.0000   0.2853
  12.800   1.5968   0.06034   0.05236  -0.0850  0.1231  1.0000  -4.5576   0.0000   0.0000   0.0000   0.2845
  12.900   1.5969   0.06138   0.05348  -0.0841  0.1213  1.0000  -4.5832   0.0000   0.0000   0.0000   0.2837
  13.000   1.5988   0.06233   0.05451  -0.0833  0.1194  1.0000  -4.6178   0.0000   0.0000   0.0000   0.2830
  13.100   1.6056   0.06322   0.05536  -0.0831  0.1168  1.0000  -4.6735   0.0000   0.0000   0.0000   0.2824
  13.200   1.6220   0.06638   0.05843  -0.0846  0.1126  1.0000  -4.7416   0.0000   0.0000   0.0000   0.2827
  13.300   1.6146   0.06739   0.05960  -0.0829  0.1121  1.0000  -4.7397   0.0000   0.0000   0.0000   0.2817
  13.400   1.6072   0.06853   0.06089  -0.0814  0.1115  1.0000  -4.7363   0.0000   0.0000   0.0000   0.2808
  13.500   1.5997   0.06978   0.06229  -0.0799  0.1110  1.0000  -4.7323   0.0000   0.0000   0.0000   0.2800
  13.600   1.5919   0.07115   0.06381  -0.0785  0.1104  1.0000  -4.7279   0.0000   0.0000   0.0000   0.2792
  13.700   1.5839   0.07263   0.06544  -0.0773  0.1098  1.0000  -4.7213   0.0000   0.0000   0.0000   0.2785
  13.800   1.5757   0.07422   0.06718  -0.0761  0.1093  1.0000  -4.7127   0.0000   0.0000   0.0000   0.2778
  13.900   1.5670   0.07593   0.06902  -0.0751  0.1088  1.0000  -4.7016   0.0000   0.0000   0.0000   0.2772
  14.000   1.5580   0.07774   0.07098  -0.0742  0.1083  1.0000  -4.6879   0.0000   0.0000   0.0000   0.2767
  14.100   1.5484   0.07967   0.07304  -0.0734  0.1080  1.0000  -4.6709   0.0000   0.0000   0.0000   0.2763
  14.200   1.5383   0.08171   0.07522  -0.0727  0.1077  1.0000  -4.6508   0.0000   0.0000   0.0000   0.2760
  14.300   1.5274   0.08386   0.07751  -0.0721  0.1075  1.0000  -4.6271   0.0000   0.0000   0.0000   0.2758
  14.400   1.5160   0.08615   0.07992  -0.0717  0.1073  1.0000  -4.5998   0.0000   0.0000   0.0000   0.2757
  14.500   1.5038   0.08858   0.08248  -0.0714  0.1073  1.0000  -4.5684   0.0000   0.0000   0.0000   0.2757
  14.600   1.4908   0.09116   0.08518  -0.0713  0.1073  1.0000  -4.5324   0.0000   0.0000   0.0000   0.2759
  14.700   1.4771   0.09392   0.08806  -0.0714  0.1074  1.0000  -4.4917   0.0000   0.0000   0.0000   0.2762
  14.800   1.4625   0.09687   0.09113  -0.0718  0.1075  1.0000  -4.4455   0.0000   0.0000   0.0000   0.2767
  14.900   1.4469   0.10005   0.09441  -0.0724  0.1078  1.0000  -4.3933   0.0000   0.0000   0.0000   0.2775
  15.000   1.4305   0.10348   0.09795  -0.0732  0.1081  1.0000  -4.3349   0.0000   0.0000   0.0000   0.2785


