xflr5 v6.61

 Calculated polar for: SG6043

 1 1 Reynolds number fixed          Mach number fixed         

 xtrf =   1.000 (top)        1.000 (bottom)
 Mach =   0.000     Re =     0.200 e 6     Ncrit =   9.000

  alpha     CL        CD       CDp       Cm    Top Xtr Bot Xtr   Cpmin    Chinge    XCp    
 ------- -------- --------- --------- -------- ------- ------- -------- --------- ---------
 -10.000  -0.3318   0.13341   0.12999  -0.0260  0.9995  0.0277  -1.4093   0.0000   0.0000   0.0000   0.1606
  -9.900  -0.3261   0.13194   0.12851  -0.0274  0.9986  0.0281  -1.4074   0.0000   0.0000   0.0000   0.1548
  -9.800  -0.3206   0.13048   0.12706  -0.0288  0.9977  0.0285  -1.4075   0.0000   0.0000   0.0000   0.1490
  -9.700  -0.3151   0.12904   0.12561  -0.0302  0.9966  0.0289  -1.4095   0.0000   0.0000   0.0000   0.1430
  -9.600  -0.3096   0.12759   0.12416  -0.0316  0.9956  0.0293  -1.4136   0.0000   0.0000   0.0000   0.1365
  -9.500  -0.3040   0.12613   0.12270  -0.0331  0.9945  0.0298  -1.4203   0.0000   0.0000   0.0000   0.1295
  -9.400  -0.2983   0.12467   0.12124  -0.0347  0.9934  0.0303  -1.4307   0.0000   0.0000   0.0000   0.1218
  -9.300  -0.2925   0.12323   0.11979  -0.0366  0.9924  0.0309  -1.4475   0.0000   0.0000   0.0000   0.1130
  -9.200  -0.2867   0.12189   0.11845  -0.0389  0.9914  0.0315  -1.4782   0.0000   0.0000   0.0000   0.1024
  -9.100  -0.2836   0.12086   0.11743  -0.0411  0.9897  0.0320  -1.5270   0.0000   0.0000   0.0000   0.0929
  -9.000  -0.2821   0.12002   0.11660  -0.0434  0.9874  0.0324  -1.5822   0.0000   0.0000   0.0000   0.0842
  -8.900  -0.2800   0.11908   0.11567  -0.0458  0.9851  0.0326  -1.6349   0.0000   0.0000   0.0000   0.0745
  -8.800  -0.2765   0.11799   0.11457  -0.0480  0.9830  0.0327  -1.6776   0.0000   0.0000   0.0000   0.0643
  -8.700  -0.2725   0.11679   0.11338  -0.0501  0.9812  0.0328  -1.7143   0.0000   0.0000   0.0000   0.0539
  -8.600  -0.2682   0.11552   0.11211  -0.0523  0.9796  0.0329  -1.7486   0.0000   0.0000   0.0000   0.0429
  -8.500  -0.2629   0.11417   0.11076  -0.0543  0.9783  0.0329  -1.7734   0.0000   0.0000   0.0000   0.0313
  -8.400  -0.2574   0.11276   0.10935  -0.0563  0.9771  0.0330  -1.7985   0.0000   0.0000   0.0000   0.0186
  -8.300  -0.2547   0.10896   0.10558  -0.0564  0.9767  0.0334  -1.8142   0.0000   0.0000   0.0000   0.0159
  -8.200  -0.2460   0.10683   0.10344  -0.0554  0.9765  0.0339  -1.7311   0.0000   0.0000   0.0000   0.0119
  -8.100  -0.2370   0.10527   0.10188  -0.0553  0.9760  0.0344  -1.6655   0.0000   0.0000   0.0000   0.0034
  -8.000  -0.2287   0.10389   0.10047  -0.0559  0.9755  0.0349  -1.6228   0.0000   0.0000   0.0000  -0.0083
  -7.900  -0.2208   0.10255   0.09914  -0.0571  0.9748  0.0355  -1.5932   0.0000   0.0000   0.0000  -0.0226
  -7.800  -0.2178   0.10150   0.09809  -0.0573  0.9728  0.0359  -1.5799   0.0000   0.0000   0.0000  -0.0272
  -7.700  -0.2179   0.10062   0.09722  -0.0568  0.9695  0.0363  -1.5750   0.0000   0.0000   0.0000  -0.0248
  -7.600  -0.2146   0.09952   0.09613  -0.0574  0.9670  0.0368  -1.5682   0.0000   0.0000   0.0000  -0.0313
  -7.500  -0.2104   0.09834   0.09495  -0.0583  0.9649  0.0374  -1.5626   0.0000   0.0000   0.0000  -0.0411
  -7.400  -0.2053   0.09714   0.09375  -0.0594  0.9631  0.0383  -1.5572   0.0000   0.0000   0.0000  -0.0537
  -7.300  -0.2000   0.09591   0.09252  -0.0609  0.9614  0.0393  -1.5568   0.0000   0.0000   0.0000  -0.0691
  -7.200  -0.1946   0.09467   0.09128  -0.0628  0.9598  0.0406  -1.5679   0.0000   0.0000   0.0000  -0.0876
  -7.100  -0.1897   0.09358   0.09019  -0.0657  0.9580  0.0420  -1.6054   0.0000   0.0000   0.0000  -0.1112
  -7.000  -0.1858   0.09289   0.08951  -0.0702  0.9560  0.0430  -1.6812   0.0000   0.0000   0.0000  -0.1429
  -6.900  -0.1939   0.09271   0.08936  -0.0689  0.9510  0.0431  -1.7059   0.0000   0.0000   0.0000  -0.1189
  -6.800  -0.1977   0.09226   0.08892  -0.0693  0.9459  0.0434  -1.7418   0.0000   0.0000   0.0000  -0.1141
  -6.700  -0.1917   0.09099   0.08765  -0.0735  0.9422  0.0437  -1.7893   0.0000   0.0000   0.0000  -0.1467
  -6.600  -0.1818   0.08933   0.08598  -0.0775  0.9399  0.0439  -1.8135   0.0000   0.0000   0.0000  -0.1901
  -6.500  -0.1707   0.08736   0.08399  -0.0817  0.9382  0.0440  -1.8339   0.0000   0.0000   0.0000  -0.2431
  -6.400  -0.1590   0.08526   0.08187  -0.0858  0.9368  0.0440  -1.8519   0.0000   0.0000   0.0000  -0.3053
  -6.300  -0.1600   0.08081   0.07746  -0.0871  0.9360  0.0447  -1.9073   0.0000   0.0000   0.0000  -0.3100
  -6.200  -0.1552   0.07921   0.07586  -0.0858  0.9355  0.0452  -1.8472   0.0000   0.0000   0.0000  -0.3184
  -6.100  -0.1480   0.07791   0.07456  -0.0855  0.9350  0.0457  -1.7888   0.0000   0.0000   0.0000  -0.3441
  -6.000  -0.1395   0.07669   0.07334  -0.0858  0.9344  0.0462  -1.7328   0.0000   0.0000   0.0000  -0.3823
  -5.900  -0.1572   0.07687   0.07356  -0.0821  0.9262  0.0460  -1.7720   0.0000   0.0000   0.0000  -0.2866
  -5.800  -0.1535   0.07588   0.07257  -0.0818  0.9237  0.0464  -1.7372   0.0000   0.0000   0.0000  -0.2975
  -5.700  -0.1475   0.07477   0.07145  -0.0821  0.9217  0.0469  -1.7002   0.0000   0.0000   0.0000  -0.3219
  -5.600  -0.1400   0.07352   0.07021  -0.0831  0.9199  0.0475  -1.6659   0.0000   0.0000   0.0000  -0.3591
  -5.500  -0.1312   0.07217   0.06885  -0.0845  0.9184  0.0481  -1.6345   0.0000   0.0000   0.0000  -0.4104
  -5.400  -0.1214   0.07070   0.06737  -0.0865  0.9170  0.0488  -1.6073   0.0000   0.0000   0.0000  -0.4798
  -5.300  -0.1105   0.06912   0.06577  -0.0889  0.9158  0.0497  -1.5841   0.0000   0.0000   0.0000  -0.5738
  -5.200  -0.0985   0.06741   0.06404  -0.0918  0.9148  0.0507  -1.5654   0.0000   0.0000   0.0000  -0.7033
  -5.100  -0.0857   0.06559   0.06220  -0.0952  0.9137  0.0518  -1.5519   0.0000   0.0000   0.0000  -0.8842
  -5.000  -0.0710   0.06359   0.06015  -0.0992  0.9128  0.0531  -1.5442   0.0000   0.0000   0.0000  -1.1742
  -4.900  -0.0525   0.06126   0.05776  -0.1046  0.9120  0.0551  -1.5539   0.0000   0.0000   0.0000  -1.7783
  -4.800  -0.0666   0.06138   0.05791  -0.1008  0.9050  0.0548  -1.5660   0.0000   0.0000   0.0000  -1.2909
  -4.700  -0.0456   0.05961   0.05595  -0.1079  0.9005  0.0579  -1.6487   0.0000   0.0000   0.0000  -2.1558
  -4.600  -0.0280   0.05856   0.05474  -0.1114  0.8982  0.0586  -1.6572   0.0000   0.0000   0.0000  -3.7999
  -4.500  -0.0133   0.05705   0.05311  -0.1141  0.8965  0.0588  -1.6534   0.0000   0.0000   0.0000  -8.4812
  -4.400  -0.0060   0.05113   0.04711  -0.1187  0.8953  0.0603  -1.7359   0.0000   0.0000   0.0000  -19.7244
  -4.300   0.0030   0.04934   0.04536  -0.1195  0.8943  0.0612  -1.6833   0.0000   0.0000   0.0000  41.0240
  -4.200   0.0136   0.04814   0.04418  -0.1202  0.8933  0.0620  -1.6207   0.0000   0.0000   0.0000   9.2336
  -4.100   0.0254   0.04703   0.04307  -0.1212  0.8925  0.0629  -1.5723   0.0000   0.0000   0.0000   5.0896
  -4.000   0.0380   0.04596   0.04198  -0.1224  0.8917  0.0640  -1.5363   0.0000   0.0000   0.0000   3.5098
  -3.900   0.0519   0.04483   0.04083  -0.1238  0.8909  0.0654  -1.5060   0.0000   0.0000   0.0000   2.6666
  -3.800   0.0673   0.04359   0.03953  -0.1257  0.8902  0.0672  -1.4836   0.0000   0.0000   0.0000   2.1399
  -3.700   0.0845   0.04223   0.03809  -0.1279  0.8896  0.0697  -1.4712   0.0000   0.0000   0.0000   1.7815
  -3.600   0.1053   0.04090   0.03659  -0.1308  0.8890  0.0738  -1.4783   0.0000   0.0000   0.0000   1.5062
  -3.500   0.1336   0.04258   0.03789  -0.1329  0.8884  0.0784  -1.4749   0.0000   0.0000   0.0000   1.2558
  -3.400   0.1470   0.03660   0.03181  -0.1376  0.8882  0.0820  -1.5321   0.0000   0.0000   0.0000   1.1965
  -3.300   0.1617   0.03542   0.03065  -0.1389  0.8877  0.0836  -1.4940   0.0000   0.0000   0.0000   1.1181
  -3.200   0.1775   0.03442   0.02963  -0.1403  0.8873  0.0855  -1.4569   0.0000   0.0000   0.0000   1.0483
  -3.100   0.1935   0.03038   0.02482  -0.1415  0.8840  0.0618  -1.7364   0.0000   0.0000   0.0000   0.9888
  -3.000   0.1884   0.03030   0.02473  -0.1388  0.8776  0.0623  -1.7278   0.0000   0.0000   0.0000   0.9944
  -2.900   0.2003   0.02956   0.02396  -0.1393  0.8759  0.0632  -1.6885   0.0000   0.0000   0.0000   0.9523
  -2.800   0.2182   0.02780   0.02195  -0.1404  0.8751  0.0530  -1.7448   0.0000   0.0000   0.0000   0.8996
  -2.700   0.2410   0.02526   0.01872  -0.1421  0.8750  0.0454  -1.8871   0.0000   0.0000   0.0000   0.8454
  -2.600   0.2553   0.02494   0.01829  -0.1425  0.8736  0.0447  -1.8415   0.0000   0.0000   0.0000   0.8134
  -2.500   0.2702   0.02456   0.01783  -0.1431  0.8725  0.0443  -1.7891   0.0000   0.0000   0.0000   0.7843
  -2.400   0.2857   0.02405   0.01722  -0.1438  0.8715  0.0440  -1.7384   0.0000   0.0000   0.0000   0.7578
  -2.300   0.3018   0.02310   0.01615  -0.1448  0.8708  0.0438  -1.7059   0.0000   0.0000   0.0000   0.7338
  -2.200   0.3176   0.02241   0.01535  -0.1456  0.8700  0.0438  -1.6623   0.0000   0.0000   0.0000   0.7121
  -2.100   0.3336   0.02184   0.01469  -0.1464  0.8692  0.0439  -1.6127   0.0000   0.0000   0.0000   0.6923
  -2.000   0.3497   0.02111   0.01389  -0.1473  0.8686  0.0443  -1.5701   0.0000   0.0000   0.0000   0.6742
  -1.900   0.3660   0.02028   0.01299  -0.1482  0.8680  0.0453  -1.5306   0.0000   0.0000   0.0000   0.6578
  -1.800   0.3824   0.01967   0.01237  -0.1492  0.8675  0.0469  -1.4764   0.0000   0.0000   0.0000   0.6426
  -1.700   0.3989   0.01925   0.01197  -0.1501  0.8669  0.0489  -1.4105   0.0000   0.0000   0.0000   0.6286
  -1.600   0.4157   0.01890   0.01161  -0.1511  0.8663  0.0518  -1.3537   0.0000   0.0000   0.0000   0.6155
  -1.500   0.4328   0.01855   0.01124  -0.1521  0.8658  0.0556  -1.3242   0.0000   0.0000   0.0000   0.6032
  -1.400   0.4504   0.01806   0.01074  -0.1532  0.8654  0.0618  -1.3093   0.0000   0.0000   0.0000   0.5918
  -1.300   0.4679   0.01774   0.01048  -0.1544  0.8650  0.0768  -1.2747   0.0000   0.0000   0.0000   0.5814
  -1.200   0.4860   0.01731   0.01010  -0.1558  0.8646  0.1033  -1.2471   0.0000   0.0000   0.0000   0.5717
  -1.100   0.5041   0.01696   0.00981  -0.1572  0.8642  0.1271  -1.1926   0.0000   0.0000   0.0000   0.5627
  -1.000   0.5225   0.01662   0.00960  -0.1586  0.8637  0.1585  -1.1279   0.0000   0.0000   0.0000   0.5544
  -0.900   0.5412   0.01619   0.00941  -0.1603  0.8633  0.2179  -1.0608   0.0000   0.0000   0.0000   0.5468
  -0.700   0.5438   0.01607   0.00990  -0.1570  0.8544  0.3894  -1.0048   0.0000   0.0000   0.0000   0.5391
  -0.600   0.5527   0.01569   0.01007  -0.1567  0.8518  0.5686  -0.9564   0.0000   0.0000   0.0000   0.5337
  -0.500   0.5626   0.01543   0.01009  -0.1561  0.8498  0.6614  -0.9061   0.0000   0.0000   0.0000   0.5276
  -0.400   0.5731   0.01521   0.01003  -0.1556  0.8482  0.7280  -0.8529   0.0000   0.0000   0.0000   0.5215
  -0.300   0.5832   0.01497   0.00993  -0.1550  0.8466  0.7835  -0.8008   0.0000   0.0000   0.0000   0.5155
  -0.200   0.5928   0.01472   0.00978  -0.1541  0.8453  0.8437  -0.7501   0.0000   0.0000   0.0000   0.5096
  -0.100   0.6083   0.01436   0.00950  -0.1545  0.8442  1.0000  -0.7106   0.0000   0.0000   0.0000   0.5034
   0.000   0.6264   0.01424   0.00931  -0.1557  0.8433  1.0000  -0.7228   0.0000   0.0000   0.0000   0.4979
   0.100   0.6444   0.01411   0.00911  -0.1570  0.8424  1.0000  -0.7351   0.0000   0.0000   0.0000   0.4928
   0.200   0.6620   0.01399   0.00892  -0.1581  0.8414  1.0000  -0.7477   0.0000   0.0000   0.0000   0.4879
   0.300   0.6796   0.01387   0.00874  -0.1593  0.8405  1.0000  -0.7603   0.0000   0.0000   0.0000   0.4833
   0.400   0.6978   0.01374   0.00855  -0.1605  0.8396  1.0000  -0.7734   0.0000   0.0000   0.0000   0.4789
   0.500   0.7162   0.01361   0.00837  -0.1619  0.8387  1.0000  -0.7873   0.0000   0.0000   0.0000   0.4747
   0.600   0.7347   0.01349   0.00819  -0.1632  0.8378  1.0000  -0.8014   0.0000   0.0000   0.0000   0.4707
   0.700   0.7531   0.01339   0.00805  -0.1645  0.8368  1.0000  -0.8154   0.0000   0.0000   0.0000   0.4669
   0.800   0.7408   0.01386   0.00854  -0.1601  0.8287  1.0000  -0.8109   0.0000   0.0000   0.0000   0.4644
   0.900   0.7516   0.01386   0.00851  -0.1599  0.8256  1.0000  -0.8210   0.0000   0.0000   0.0000   0.4610
   1.000   0.7652   0.01380   0.00841  -0.1603  0.8233  1.0000  -0.8337   0.0000   0.0000   0.0000   0.4576
   1.100   0.7800   0.01371   0.00829  -0.1609  0.8213  1.0000  -0.8474   0.0000   0.0000   0.0000   0.4542
   1.200   0.7956   0.01361   0.00815  -0.1617  0.8195  1.0000  -0.8618   0.0000   0.0000   0.0000   0.4510
   1.300   0.8123   0.01348   0.00799  -0.1626  0.8178  1.0000  -0.8777   0.0000   0.0000   0.0000   0.4479
   1.400   0.8297   0.01334   0.00782  -0.1637  0.8163  1.0000  -0.8945   0.0000   0.0000   0.0000   0.4449
   1.500   0.8474   0.01321   0.00765  -0.1648  0.8147  1.0000  -0.9117   0.0000   0.0000   0.0000   0.4420
   1.600   0.8653   0.01309   0.00750  -0.1660  0.8132  1.0000  -0.9298   0.0000   0.0000   0.0000   0.4392
   1.700   0.8833   0.01300   0.00736  -0.1672  0.8115  1.0000  -0.9486   0.0000   0.0000   0.0000   0.4366
   1.800   0.8824   0.01322   0.00760  -0.1649  0.8061  1.0000  -0.9536   0.0000   0.0000   0.0000   0.4340
   1.900   0.8895   0.01328   0.00766  -0.1640  0.8018  1.0000  -0.9657   0.0000   0.0000   0.0000   0.4314
   2.000   0.9010   0.01325   0.00761  -0.1640  0.7985  1.0000  -0.9813   0.0000   0.0000   0.0000   0.4289
   2.100   0.9150   0.01317   0.00751  -0.1644  0.7957  1.0000  -0.9990   0.0000   0.0000   0.0000   0.4264
   2.200   0.9303   0.01307   0.00738  -0.1651  0.7931  1.0000  -1.0188   0.0000   0.0000   0.0000   0.4241
   2.300   0.9465   0.01296   0.00724  -0.1659  0.7908  1.0000  -1.0405   0.0000   0.0000   0.0000   0.4218
   2.400   0.9633   0.01285   0.00710  -0.1669  0.7885  1.0000  -1.0630   0.0000   0.0000   0.0000   0.4196
   2.500   0.9805   0.01276   0.00698  -0.1679  0.7861  1.0000  -1.0882   0.0000   0.0000   0.0000   0.4175
   2.600   0.9834   0.01289   0.00713  -0.1662  0.7811  1.0000  -1.0998   0.0000   0.0000   0.0000   0.4152
   2.700   0.9907   0.01293   0.00718  -0.1654  0.7764  1.0000  -1.1159   0.0000   0.0000   0.0000   0.4130
   2.800   1.0020   0.01290   0.00713  -0.1653  0.7724  1.0000  -1.1382   0.0000   0.0000   0.0000   0.4109
   2.900   1.0154   0.01283   0.00706  -0.1656  0.7688  1.0000  -1.1632   0.0000   0.0000   0.0000   0.4089
   3.000   1.0302   0.01274   0.00695  -0.1661  0.7656  1.0000  -1.1898   0.0000   0.0000   0.0000   0.4069
   3.100   1.0457   0.01266   0.00683  -0.1669  0.7626  1.0000  -1.2174   0.0000   0.0000   0.0000   0.4051
   3.200   1.0589   0.01265   0.00680  -0.1671  0.7591  1.0000  -1.2425   0.0000   0.0000   0.0000   0.4032
   3.300   1.0632   0.01273   0.00691  -0.1657  0.7536  1.0000  -1.2578   0.0000   0.0000   0.0000   0.4012
   3.400   1.0720   0.01274   0.00693  -0.1652  0.7487  1.0000  -1.2783   0.0000   0.0000   0.0000   0.3992
   3.500   1.0836   0.01270   0.00688  -0.1651  0.7442  1.0000  -1.3020   0.0000   0.0000   0.0000   0.3974
   3.600   1.0968   0.01264   0.00678  -0.1653  0.7401  1.0000  -1.3277   0.0000   0.0000   0.0000   0.3957
   3.700   1.1124   0.01257   0.00667  -0.1660  0.7363  1.0000  -1.3565   0.0000   0.0000   0.0000   0.3940
   3.800   1.1204   0.01261   0.00672  -0.1653  0.7312  1.0000  -1.3791   0.0000   0.0000   0.0000   0.3922
   3.900   1.1269   0.01265   0.00679  -0.1643  0.7253  1.0000  -1.4000   0.0000   0.0000   0.0000   0.3904
   4.000   1.1366   0.01265   0.00678  -0.1639  0.7198  1.0000  -1.4251   0.0000   0.0000   0.0000   0.3886
   4.100   1.1488   0.01260   0.00670  -0.1640  0.7148  1.0000  -1.4535   0.0000   0.0000   0.0000   0.3870
   4.200   1.1639   0.01256   0.00660  -0.1646  0.7102  1.0000  -1.4857   0.0000   0.0000   0.0000   0.3855
   4.300   1.1696   0.01262   0.00674  -0.1634  0.7040  1.0000  -1.5058   0.0000   0.0000   0.0000   0.3837
   4.400   1.1769   0.01266   0.00679  -0.1626  0.6975  1.0000  -1.5283   0.0000   0.0000   0.0000   0.3820
   4.500   1.1876   0.01264   0.00675  -0.1623  0.6913  1.0000  -1.5566   0.0000   0.0000   0.0000   0.3804
   4.600   1.2012   0.01262   0.00667  -0.1626  0.6856  1.0000  -1.5958   0.0000   0.0000   0.0000   0.3790
   4.700   1.2078   0.01268   0.00676  -0.1617  0.6788  1.0000  -1.6237   0.0000   0.0000   0.0000   0.3773
   4.800   1.2154   0.01273   0.00681  -0.1609  0.6714  1.0000  -1.6534   0.0000   0.0000   0.0000   0.3757
   4.900   1.2261   0.01274   0.00678  -0.1606  0.6643  1.0000  -1.6885   0.0000   0.0000   0.0000   0.3742
   5.000   1.2369   0.01277   0.00677  -0.1604  0.6573  1.0000  -1.7239   0.0000   0.0000   0.0000   0.3728
   5.100   1.2431   0.01285   0.00687  -0.1594  0.6492  1.0000  -1.7518   0.0000   0.0000   0.0000   0.3712
   5.200   1.2522   0.01290   0.00689  -0.1589  0.6412  1.0000  -1.7846   0.0000   0.0000   0.0000   0.3697
   5.300   1.2633   0.01295   0.00687  -0.1587  0.6336  1.0000  -1.8213   0.0000   0.0000   0.0000   0.3683
   5.400   1.2691   0.01304   0.00699  -0.1576  0.6251  1.0000  -1.8488   0.0000   0.0000   0.0000   0.3668
   5.500   1.2772   0.01312   0.00705  -0.1569  0.6164  1.0000  -1.8806   0.0000   0.0000   0.0000   0.3653
   5.600   1.2874   0.01321   0.00707  -0.1567  0.6083  1.0000  -1.9161   0.0000   0.0000   0.0000   0.3640
   5.700   1.2936   0.01331   0.00723  -0.1556  0.5997  1.0000  -1.9447   0.0000   0.0000   0.0000   0.3625
   5.800   1.3013   0.01342   0.00731  -0.1549  0.5907  1.0000  -1.9763   0.0000   0.0000   0.0000   0.3610
   5.900   1.3100   0.01354   0.00737  -0.1543  0.5817  1.0000  -2.0137   0.0000   0.0000   0.0000   0.3597
   6.000   1.3161   0.01365   0.00750  -0.1533  0.5718  1.0000  -2.0461   0.0000   0.0000   0.0000   0.3582
   6.100   1.3233   0.01380   0.00758  -0.1525  0.5614  1.0000  -2.0810   0.0000   0.0000   0.0000   0.3568
   6.200   1.3298   0.01394   0.00770  -0.1515  0.5510  1.0000  -2.1146   0.0000   0.0000   0.0000   0.3554
   6.300   1.3358   0.01409   0.00781  -0.1504  0.5397  1.0000  -2.1474   0.0000   0.0000   0.0000   0.3539
   6.400   1.3420   0.01427   0.00793  -0.1494  0.5287  1.0000  -2.1808   0.0000   0.0000   0.0000   0.3525
   6.500   1.3473   0.01443   0.00807  -0.1483  0.5169  1.0000  -2.2125   0.0000   0.0000   0.0000   0.3511
   6.600   1.3528   0.01464   0.00819  -0.1472  0.5056  1.0000  -2.2448   0.0000   0.0000   0.0000   0.3497
   6.700   1.3576   0.01481   0.00835  -0.1459  0.4939  1.0000  -2.2756   0.0000   0.0000   0.0000   0.3482
   6.800   1.3617   0.01503   0.00849  -0.1445  0.4826  1.0000  -2.3054   0.0000   0.0000   0.0000   0.3467
   6.900   1.3661   0.01522   0.00866  -0.1432  0.4710  1.0000  -2.3356   0.0000   0.0000   0.0000   0.3453
   7.000   1.3694   0.01546   0.00883  -0.1417  0.4589  1.0000  -2.3640   0.0000   0.0000   0.0000   0.3438
   7.100   1.3732   0.01569   0.00902  -0.1403  0.4469  1.0000  -2.3933   0.0000   0.0000   0.0000   0.3424
   7.200   1.3760   0.01596   0.00922  -0.1387  0.4342  1.0000  -2.4206   0.0000   0.0000   0.0000   0.3409
   7.300   1.3793   0.01621   0.00943  -0.1373  0.4217  1.0000  -2.4491   0.0000   0.0000   0.0000   0.3394
   7.400   1.3816   0.01651   0.00969  -0.1357  0.4086  1.0000  -2.4783   0.0000   0.0000   0.0000   0.3380
   7.500   1.3847   0.01680   0.00992  -0.1343  0.3956  1.0000  -2.5100   0.0000   0.0000   0.0000   0.3366
   7.600   1.3868   0.01713   0.01018  -0.1327  0.3826  1.0000  -2.5393   0.0000   0.0000   0.0000   0.3351
   7.700   1.3898   0.01743   0.01043  -0.1312  0.3698  1.0000  -2.5708   0.0000   0.0000   0.0000   0.3338
   7.800   1.3915   0.01780   0.01072  -0.1296  0.3572  1.0000  -2.5994   0.0000   0.0000   0.0000   0.3323
   7.900   1.3947   0.01812   0.01100  -0.1283  0.3449  1.0000  -2.6312   0.0000   0.0000   0.0000   0.3310
   8.000   1.3966   0.01850   0.01130  -0.1268  0.3327  1.0000  -2.6605   0.0000   0.0000   0.0000   0.3297
   8.100   1.3997   0.01884   0.01161  -0.1255  0.3209  1.0000  -2.6923   0.0000   0.0000   0.0000   0.3284
   8.200   1.4020   0.01923   0.01193  -0.1241  0.3090  1.0000  -2.7225   0.0000   0.0000   0.0000   0.3271
   8.300   1.4046   0.01962   0.01227  -0.1227  0.2981  1.0000  -2.7569   0.0000   0.0000   0.0000   0.3258
   8.400   1.4074   0.02000   0.01261  -0.1214  0.2867  1.0000  -2.7921   0.0000   0.0000   0.0000   0.3246
   8.500   1.4090   0.02046   0.01299  -0.1200  0.2768  1.0000  -2.8241   0.0000   0.0000   0.0000   0.3233
   8.600   1.4131   0.02080   0.01332  -0.1189  0.2661  1.0000  -2.8627   0.0000   0.0000   0.0000   0.3221
   8.700   1.4148   0.02128   0.01372  -0.1175  0.2564  1.0000  -2.8958   0.0000   0.0000   0.0000   0.3209
   8.800   1.4185   0.02167   0.01409  -0.1165  0.2470  1.0000  -2.9377   0.0000   0.0000   0.0000   0.3198
   8.900   1.4214   0.02209   0.01448  -0.1153  0.2376  1.0000  -2.9775   0.0000   0.0000   0.0000   0.3186
   9.000   1.4224   0.02264   0.01495  -0.1139  0.2292  1.0000  -3.0117   0.0000   0.0000   0.0000   0.3174
   9.100   1.4272   0.02299   0.01531  -0.1130  0.2206  1.0000  -3.0573   0.0000   0.0000   0.0000   0.3164
   9.200   1.4300   0.02346   0.01577  -0.1119  0.2123  1.0000  -3.0969   0.0000   0.0000   0.0000   0.3153
   9.300   1.4309   0.02406   0.01628  -0.1105  0.2048  1.0000  -3.1310   0.0000   0.0000   0.0000   0.3141
   9.400   1.4361   0.02440   0.01666  -0.1097  0.1975  1.0000  -3.1820   0.0000   0.0000   0.0000   0.3131
   9.500   1.4392   0.02488   0.01711  -0.1087  0.1903  1.0000  -3.2275   0.0000   0.0000   0.0000   0.3121
   9.600   1.4406   0.02547   0.01763  -0.1075  0.1837  1.0000  -3.2674   0.0000   0.0000   0.0000   0.3110
   9.700   1.4442   0.02594   0.01810  -0.1066  0.1776  1.0000  -3.3144   0.0000   0.0000   0.0000   0.3100
   9.800   1.4489   0.02635   0.01853  -0.1058  0.1714  1.0000  -3.3656   0.0000   0.0000   0.0000   0.3091
   9.900   1.4517   0.02687   0.01902  -0.1048  0.1657  1.0000  -3.4108   0.0000   0.0000   0.0000   0.3081
  10.000   1.4531   0.02750   0.01959  -0.1036  0.1605  1.0000  -3.4509   0.0000   0.0000   0.0000   0.3071
  10.100   1.4559   0.02807   0.02015  -0.1027  0.1556  1.0000  -3.4952   0.0000   0.0000   0.0000   0.3061
  10.200   1.4612   0.02845   0.02058  -0.1020  0.1511  1.0000  -3.5489   0.0000   0.0000   0.0000   0.3052
  10.300   1.4652   0.02892   0.02108  -0.1012  0.1466  1.0000  -3.5983   0.0000   0.0000   0.0000   0.3043
  10.400   1.4682   0.02948   0.02161  -0.1003  0.1424  1.0000  -3.6443   0.0000   0.0000   0.0000   0.3034
  10.500   1.4697   0.03017   0.02225  -0.0992  0.1383  1.0000  -3.6848   0.0000   0.0000   0.0000   0.3024
  10.600   1.4711   0.03093   0.02297  -0.0982  0.1340  1.0000  -3.7237   0.0000   0.0000   0.0000   0.3015
  10.700   1.4766   0.03131   0.02343  -0.0976  0.1310  1.0000  -3.7786   0.0000   0.0000   0.0000   0.3007
  10.800   1.4813   0.03176   0.02393  -0.0969  0.1276  1.0000  -3.8310   0.0000   0.0000   0.0000   0.2998
  10.900   1.4853   0.03226   0.02446  -0.0962  0.1241  1.0000  -3.8815   0.0000   0.0000   0.0000   0.2990
  11.000   1.4883   0.03286   0.02506  -0.0954  0.1208  1.0000  -3.9284   0.0000   0.0000   0.0000   0.2982
  11.100   1.4899   0.03358   0.02575  -0.0945  0.1175  1.0000  -3.9700   0.0000   0.0000   0.0000   0.2973
  11.200   1.4907   0.03450   0.02662  -0.0935  0.1134  1.0000  -4.0058   0.0000   0.0000   0.0000   0.2964
  11.300   1.4952   0.03500   0.02718  -0.0929  0.1111  1.0000  -4.0575   0.0000   0.0000   0.0000   0.2956
  11.400   1.4999   0.03547   0.02771  -0.0923  0.1087  1.0000  -4.1104   0.0000   0.0000   0.0000   0.2949
  11.500   1.5041   0.03599   0.02829  -0.0917  0.1061  1.0000  -4.1615   0.0000   0.0000   0.0000   0.2941
  11.600   1.5079   0.03655   0.02888  -0.0910  0.1036  1.0000  -4.2116   0.0000   0.0000   0.0000   0.2933
  11.700   1.5110   0.03717   0.02952  -0.0903  0.1012  1.0000  -4.2597   0.0000   0.0000   0.0000   0.2926
  11.800   1.5133   0.03787   0.03022  -0.0896  0.0988  1.0000  -4.3046   0.0000   0.0000   0.0000   0.2918
  11.900   1.5150   0.03868   0.03101  -0.0888  0.0964  1.0000  -4.3464   0.0000   0.0000   0.0000   0.2911
  12.000   1.5172   0.03970   0.03198  -0.0881  0.0930  1.0000  -4.3852   0.0000   0.0000   0.0000   0.2903
  12.100   1.5214   0.04033   0.03266  -0.0875  0.0912  1.0000  -4.4353   0.0000   0.0000   0.0000   0.2896
  12.200   1.5255   0.04087   0.03327  -0.0870  0.0898  1.0000  -4.4866   0.0000   0.0000   0.0000   0.2889
  12.300   1.5293   0.04145   0.03392  -0.0864  0.0881  1.0000  -4.5372   0.0000   0.0000   0.0000   0.2882
  12.400   1.5328   0.04207   0.03459  -0.0858  0.0863  1.0000  -4.5864   0.0000   0.0000   0.0000   0.2875
  12.500   1.5360   0.04273   0.03530  -0.0853  0.0845  1.0000  -4.6345   0.0000   0.0000   0.0000   0.2868
  12.600   1.5389   0.04341   0.03602  -0.0847  0.0828  1.0000  -4.6820   0.0000   0.0000   0.0000   0.2861
  12.700   1.5416   0.04412   0.03676  -0.0841  0.0811  1.0000  -4.7290   0.0000   0.0000   0.0000   0.2855
  12.800   1.5440   0.04488   0.03753  -0.0836  0.0796  1.0000  -4.7748   0.0000   0.0000   0.0000   0.2848
  12.900   1.5461   0.04572   0.03836  -0.0830  0.0779  1.0000  -4.8189   0.0000   0.0000   0.0000   0.2842
  13.000   1.5485   0.04667   0.03930  -0.0824  0.0758  1.0000  -4.8611   0.0000   0.0000   0.0000   0.2836
  13.100   1.5543   0.04775   0.04039  -0.0820  0.0731  1.0000  -4.9085   0.0000   0.0000   0.0000   0.2829
  13.200   1.5569   0.04840   0.04113  -0.0815  0.0723  1.0000  -4.9552   0.0000   0.0000   0.0000   0.2823
  13.300   1.5593   0.04912   0.04192  -0.0810  0.0714  1.0000  -5.0004   0.0000   0.0000   0.0000   0.2817
  13.400   1.5617   0.04987   0.04274  -0.0805  0.0703  1.0000  -5.0452   0.0000   0.0000   0.0000   0.2811
  13.500   1.5642   0.05064   0.04358  -0.0800  0.0691  1.0000  -5.0900   0.0000   0.0000   0.0000   0.2805
  13.600   1.5667   0.05143   0.04443  -0.0796  0.0678  1.0000  -5.1347   0.0000   0.0000   0.0000   0.2799
  13.700   1.5692   0.05224   0.04530  -0.0792  0.0666  1.0000  -5.1790   0.0000   0.0000   0.0000   0.2794
  13.800   1.5713   0.05308   0.04619  -0.0787  0.0654  1.0000  -5.2258   0.0000   0.0000   0.0000   0.2788
  13.900   1.5731   0.05396   0.04710  -0.0783  0.0643  1.0000  -5.2745   0.0000   0.0000   0.0000   0.2783
  14.000   1.5748   0.05486   0.04804  -0.0779  0.0632  1.0000  -5.3227   0.0000   0.0000   0.0000   0.2778
  14.100   1.5762   0.05579   0.04899  -0.0775  0.0621  1.0000  -5.3705   0.0000   0.0000   0.0000   0.2773
  14.200   1.5776   0.05676   0.04999  -0.0772  0.0610  1.0000  -5.4174   0.0000   0.0000   0.0000   0.2768
  14.300   1.5793   0.05781   0.05104  -0.0768  0.0597  1.0000  -5.4638   0.0000   0.0000   0.0000   0.2763
  14.400   1.5834   0.05909   0.05232  -0.0764  0.0576  1.0000  -5.5102   0.0000   0.0000   0.0000   0.2758
  14.500   1.5862   0.06029   0.05360  -0.0760  0.0564  1.0000  -5.5527   0.0000   0.0000   0.0000   0.2752
  14.600   1.5870   0.06125   0.05463  -0.0757  0.0559  1.0000  -5.5958   0.0000   0.0000   0.0000   0.2748
  14.700   1.5877   0.06225   0.05572  -0.0754  0.0553  1.0000  -5.6377   0.0000   0.0000   0.0000   0.2744
  14.800   1.5882   0.06329   0.05684  -0.0751  0.0546  1.0000  -5.6784   0.0000   0.0000   0.0000   0.2739
  14.900   1.5888   0.06438   0.05801  -0.0748  0.0538  1.0000  -5.7331   0.0000   0.0000   0.0000   0.2735
  15.000   1.5893   0.06550   0.05920  -0.0746  0.0529  1.0000  -5.7942   0.0000   0.0000   0.0000   0.2732


