xflr5 v6.61

 Calculated polar for: SG6043

 1 1 Reynolds number fixed          Mach number fixed         

 xtrf =   1.000 (top)        1.000 (bottom)
 Mach =   0.000     Re =     0.125 e 6     Ncrit =   9.000

  alpha     CL        CD       CDp       Cm    Top Xtr Bot Xtr   Cpmin    Chinge    XCp    
 ------- -------- --------- --------- -------- ------- ------- -------- --------- ---------
 -10.000  -0.3504   0.14179   0.13749  -0.0316  1.0000  0.0438  -1.5922   0.0000   0.0000   0.0000   0.1500
  -9.900  -0.3531   0.14134   0.13707  -0.0313  1.0000  0.0438  -1.6110   0.0000   0.0000   0.0000   0.1516
  -9.800  -0.3558   0.14088   0.13662  -0.0311  1.0000  0.0439  -1.6297   0.0000   0.0000   0.0000   0.1532
  -9.700  -0.3586   0.14039   0.13616  -0.0308  1.0000  0.0439  -1.6482   0.0000   0.0000   0.0000   0.1547
  -9.600  -0.3614   0.13988   0.13567  -0.0306  1.0000  0.0439  -1.6667   0.0000   0.0000   0.0000   0.1563
  -9.500  -0.3642   0.13936   0.13517  -0.0303  1.0000  0.0440  -1.6851   0.0000   0.0000   0.0000   0.1579
  -9.400  -0.3666   0.13878   0.13462  -0.0300  1.0000  0.0440  -1.7009   0.0000   0.0000   0.0000   0.1595
  -9.300  -0.3690   0.13818   0.13403  -0.0297  1.0000  0.0440  -1.7157   0.0000   0.0000   0.0000   0.1610
  -9.200  -0.3634   0.13300   0.12888  -0.0287  1.0000  0.0446  -1.7004   0.0000   0.0000   0.0000   0.1623
  -9.100  -0.3523   0.12948   0.12534  -0.0269  1.0000  0.0453  -1.6151   0.0000   0.0000   0.0000   0.1646
  -9.000  -0.3483   0.12785   0.12372  -0.0259  1.0000  0.0458  -1.5775   0.0000   0.0000   0.0000   0.1666
  -8.900  -0.3465   0.12667   0.12255  -0.0251  1.0000  0.0462  -1.5553   0.0000   0.0000   0.0000   0.1686
  -8.800  -0.3458   0.12567   0.12156  -0.0244  1.0000  0.0466  -1.5405   0.0000   0.0000   0.0000   0.1706
  -8.700  -0.3457   0.12477   0.12068  -0.0238  1.0000  0.0470  -1.5301   0.0000   0.0000   0.0000   0.1725
  -8.600  -0.3460   0.12393   0.11985  -0.0232  1.0000  0.0473  -1.5230   0.0000   0.0000   0.0000   0.1744
  -8.500  -0.3466   0.12313   0.11907  -0.0226  1.0000  0.0477  -1.5183   0.0000   0.0000   0.0000   0.1763
  -8.400  -0.3474   0.12235   0.11831  -0.0221  1.0000  0.0482  -1.5154   0.0000   0.0000   0.0000   0.1781
  -8.300  -0.3484   0.12160   0.11758  -0.0216  1.0000  0.0486  -1.5128   0.0000   0.0000   0.0000   0.1800
  -8.200  -0.3494   0.12088   0.11686  -0.0210  1.0000  0.0492  -1.5110   0.0000   0.0000   0.0000   0.1818
  -8.100  -0.3507   0.12017   0.11617  -0.0205  1.0000  0.0498  -1.5104   0.0000   0.0000   0.0000   0.1835
  -8.000  -0.3521   0.11947   0.11550  -0.0201  1.0000  0.0504  -1.5114   0.0000   0.0000   0.0000   0.1853
  -7.900  -0.3538   0.11879   0.11484  -0.0196  1.0000  0.0511  -1.5140   0.0000   0.0000   0.0000   0.1870
  -7.800  -0.3557   0.11813   0.11419  -0.0192  1.0000  0.0518  -1.5185   0.0000   0.0000   0.0000   0.1887
  -7.700  -0.3578   0.11749   0.11357  -0.0188  1.0000  0.0525  -1.5250   0.0000   0.0000   0.0000   0.1903
  -7.600  -0.3602   0.11687   0.11297  -0.0184  1.0000  0.0533  -1.5337   0.0000   0.0000   0.0000   0.1919
  -7.500  -0.3604   0.11611   0.11222  -0.0188  0.9995  0.0542  -1.5453   0.0000   0.0000   0.0000   0.1908
  -7.400  -0.3553   0.11511   0.11123  -0.0214  0.9974  0.0557  -1.5691   0.0000   0.0000   0.0000   0.1828
  -7.300  -0.3528   0.11465   0.11078  -0.0244  0.9947  0.0569  -1.6105   0.0000   0.0000   0.0000   0.1738
  -7.200  -0.3518   0.11461   0.11075  -0.0279  0.9920  0.0576  -1.6625   0.0000   0.0000   0.0000   0.1638
  -7.100  -0.3529   0.11453   0.11068  -0.0302  0.9889  0.0580  -1.7048   0.0000   0.0000   0.0000   0.1577
  -7.000  -0.3551   0.11432   0.11048  -0.0315  0.9857  0.0583  -1.7367   0.0000   0.0000   0.0000   0.1547
  -6.900  -0.3542   0.11378   0.10995  -0.0340  0.9827  0.0585  -1.7703   0.0000   0.0000   0.0000   0.1475
  -6.800  -0.3494   0.11279   0.10896  -0.0376  0.9800  0.0586  -1.8026   0.0000   0.0000   0.0000   0.1360
  -6.700  -0.3413   0.11145   0.10762  -0.0412  0.9778  0.0588  -1.8232   0.0000   0.0000   0.0000   0.1228
  -6.600  -0.3313   0.10981   0.10596  -0.0452  0.9759  0.0589  -1.8415   0.0000   0.0000   0.0000   0.1070
  -6.400  -0.3259   0.10291   0.09909  -0.0455  0.9740  0.0600  -1.8546   0.0000   0.0000   0.0000   0.1037
  -6.300  -0.3263   0.10124   0.09744  -0.0432  0.9717  0.0605  -1.8211   0.0000   0.0000   0.0000   0.1109
  -6.200  -0.3229   0.09974   0.09594  -0.0416  0.9698  0.0611  -1.7768   0.0000   0.0000   0.0000   0.1146
  -6.100  -0.3184   0.09838   0.09458  -0.0406  0.9678  0.0617  -1.7358   0.0000   0.0000   0.0000   0.1157
  -6.000  -0.3133   0.09709   0.09329  -0.0403  0.9658  0.0623  -1.7005   0.0000   0.0000   0.0000   0.1147
  -5.900  -0.3077   0.09582   0.09203  -0.0405  0.9638  0.0630  -1.6706   0.0000   0.0000   0.0000   0.1117
  -5.800  -0.3018   0.09456   0.09077  -0.0411  0.9619  0.0638  -1.6454   0.0000   0.0000   0.0000   0.1070
  -5.700  -0.2952   0.09327   0.08948  -0.0422  0.9602  0.0646  -1.6237   0.0000   0.0000   0.0000   0.1004
  -5.600  -0.2877   0.09192   0.08812  -0.0436  0.9585  0.0655  -1.6044   0.0000   0.0000   0.0000   0.0913
  -5.500  -0.2789   0.09050   0.08669  -0.0457  0.9570  0.0666  -1.5871   0.0000   0.0000   0.0000   0.0792
  -5.400  -0.2684   0.08899   0.08517  -0.0483  0.9557  0.0679  -1.5716   0.0000   0.0000   0.0000   0.0629
  -5.300  -0.2698   0.08805   0.08425  -0.0481  0.9521  0.0685  -1.5731   0.0000   0.0000   0.0000   0.0646
  -5.200  -0.2694   0.08700   0.08320  -0.0485  0.9484  0.0693  -1.5738   0.0000   0.0000   0.0000   0.0632
  -5.100  -0.2644   0.08566   0.08186  -0.0501  0.9453  0.0704  -1.5719   0.0000   0.0000   0.0000   0.0538
  -5.000  -0.2563   0.08411   0.08030  -0.0527  0.9425  0.0718  -1.5718   0.0000   0.0000   0.0000   0.0374
  -4.900  -0.2439   0.08231   0.07848  -0.0572  0.9400  0.0738  -1.5814   0.0000   0.0000   0.0000   0.0084
  -4.800  -0.2002   0.08021   0.07613  -0.0756  0.9366  0.0780  -1.6958   0.0000   0.0000   0.0000  -0.1359
  -4.700  -0.1804   0.07868   0.07447  -0.0807  0.9353  0.0784  -1.7022   0.0000   0.0000   0.0000  -0.2068
  -4.600  -0.1719   0.07393   0.06970  -0.0849  0.9344  0.0794  -1.7477   0.0000   0.0000   0.0000  -0.2536
  -4.500  -0.1782   0.07217   0.06798  -0.0830  0.9311  0.0799  -1.7467   0.0000   0.0000   0.0000  -0.2253
  -4.400  -0.1801   0.07083   0.06670  -0.0814  0.9281  0.0804  -1.7218   0.0000   0.0000   0.0000  -0.2107
  -4.300  -0.1781   0.06957   0.06547  -0.0803  0.9256  0.0811  -1.6842   0.0000   0.0000   0.0000  -0.2094
  -4.200  -0.1737   0.06843   0.06436  -0.0796  0.9233  0.0819  -1.6407   0.0000   0.0000   0.0000  -0.2170
  -4.100  -0.1674   0.06738   0.06332  -0.0792  0.9212  0.0829  -1.5931   0.0000   0.0000   0.0000  -0.2324
  -4.000  -0.1589   0.06628   0.06221  -0.0795  0.9192  0.0841  -1.5453   0.0000   0.0000   0.0000  -0.2599
  -3.900  -0.1482   0.06512   0.06104  -0.0804  0.9175  0.0857  -1.5001   0.0000   0.0000   0.0000  -0.3025
  -3.800  -0.1350   0.06380   0.05970  -0.0822  0.9160  0.0877  -1.4591   0.0000   0.0000   0.0000  -0.3690
  -3.700  -0.1190   0.06229   0.05814  -0.0849  0.9147  0.0905  -1.4246   0.0000   0.0000   0.0000  -0.4751
  -3.600  -0.0667   0.06211   0.05742  -0.0974  0.9132  0.1018  -1.4695   0.0000   0.0000   0.0000  -1.2307
  -3.500  -0.0535   0.05696   0.05220  -0.1021  0.9127  0.1040  -1.5122   0.0000   0.0000   0.0000  -1.6834
  -3.400  -0.0440   0.05501   0.05034  -0.1026  0.9120  0.1055  -1.4777   0.0000   0.0000   0.0000  -2.1100
  -3.300  -0.0320   0.05373   0.04911  -0.1034  0.9112  0.1073  -1.4396   0.0000   0.0000   0.0000  -3.0251
  -3.200  -0.0418   0.05350   0.04890  -0.1003  0.9054  0.1075  -1.4433   0.0000   0.0000   0.0000  -2.1793
  -3.100  -0.0365   0.05274   0.04815  -0.0998  0.9024  0.1090  -1.4207   0.0000   0.0000   0.0000  -2.5172
  -3.000  -0.0271   0.05187   0.04729  -0.1001  0.8999  0.1114  -1.3970   0.0000   0.0000   0.0000  -3.4835
  -2.900  -0.0139   0.05088   0.04625  -0.1014  0.8979  0.1150  -1.3777   0.0000   0.0000   0.0000  -7.1261
  -2.800   0.0175   0.04914   0.04409  -0.1080  0.8964  0.1310  -1.4076   0.0000   0.0000   0.0000   6.5029
  -2.300   0.1304   0.03901   0.03253  -0.1205  0.8921  0.0795  -1.6291   0.0000   0.0000   0.0000   1.1830
  -2.200   0.1480   0.03645   0.02992  -0.1226  0.8917  0.0725  -1.6317   0.0000   0.0000   0.0000   1.0857
  -2.100   0.1693   0.03463   0.02779  -0.1247  0.8911  0.0676  -1.6535   0.0000   0.0000   0.0000   0.9927
  -2.000   0.1918   0.03295   0.02562  -0.1265  0.8905  0.0631  -1.6996   0.0000   0.0000   0.0000   0.9151
  -1.900   0.2111   0.03213   0.02454  -0.1277  0.8897  0.0617  -1.6844   0.0000   0.0000   0.0000   0.8601
  -1.800   0.2299   0.03145   0.02368  -0.1290  0.8888  0.0613  -1.6502   0.0000   0.0000   0.0000   0.8154
  -1.700   0.2488   0.03076   0.02285  -0.1303  0.8881  0.0615  -1.6098   0.0000   0.0000   0.0000   0.7777
  -1.600   0.2676   0.03011   0.02210  -0.1316  0.8874  0.0622  -1.5641   0.0000   0.0000   0.0000   0.7453
  -1.500   0.2610   0.03019   0.02217  -0.1287  0.8812  0.0623  -1.5605   0.0000   0.0000   0.0000   0.7466
  -1.400   0.2688   0.02990   0.02184  -0.1283  0.8779  0.0631  -1.5292   0.0000   0.0000   0.0000   0.7303
  -1.300   0.2802   0.02958   0.02148  -0.1284  0.8755  0.0644  -1.4881   0.0000   0.0000   0.0000   0.7108
  -1.200   0.2934   0.02926   0.02113  -0.1287  0.8734  0.0662  -1.4422   0.0000   0.0000   0.0000   0.6912
  -1.100   0.3079   0.02894   0.02078  -0.1293  0.8715  0.0686  -1.3943   0.0000   0.0000   0.0000   0.6720
  -1.000   0.3231   0.02869   0.02049  -0.1299  0.8698  0.0728  -1.3408   0.0000   0.0000   0.0000   0.6538
  -0.900   0.3391   0.02863   0.02035  -0.1306  0.8682  0.0781  -1.2981   0.0000   0.0000   0.0000   0.6367
  -0.800   0.3561   0.02784   0.01963  -0.1317  0.8671  0.0869  -1.2864   0.0000   0.0000   0.0000   0.6212
  -0.700   0.3737   0.02749   0.01928  -0.1327  0.8660  0.0985  -1.2750   0.0000   0.0000   0.0000   0.6061
  -0.600   0.3919   0.02690   0.01877  -0.1339  0.8651  0.1207  -1.2685   0.0000   0.0000   0.0000   0.5924
  -0.500   0.4101   0.02656   0.01851  -0.1351  0.8642  0.1507  -1.2267   0.0000   0.0000   0.0000   0.5802
  -0.400   0.4286   0.02618   0.01833  -0.1366  0.8634  0.1914  -1.1705   0.0000   0.0000   0.0000   0.5691
  -0.300   0.4473   0.02559   0.01814  -0.1381  0.8627  0.2763  -1.1182   0.0000   0.0000   0.0000   0.5590
  -0.200   0.4368   0.02600   0.01860  -0.1347  0.8552  0.2885  -1.1212   0.0000   0.0000   0.0000   0.5585
  -0.100   0.4438   0.02513   0.01894  -0.1340  0.8525  0.6319  -1.0860   0.0000   0.0000   0.0000   0.5520
   0.000   0.4459   0.02478   0.01900  -0.1316  0.8493  0.7760  -1.0561   0.0000   0.0000   0.0000   0.5449
   0.200   0.4700   0.02436   0.01861  -0.1312  0.8445  1.0000  -0.9466   0.0000   0.0000   0.0000   0.5285
   0.300   0.4867   0.02434   0.01846  -0.1321  0.8429  1.0000  -0.8807   0.0000   0.0000   0.0000   0.5206
   0.400   0.5042   0.02430   0.01831  -0.1331  0.8415  1.0000  -0.8118   0.0000   0.0000   0.0000   0.5131
   0.500   0.5222   0.02425   0.01817  -0.1342  0.8404  1.0000  -0.7419   0.0000   0.0000   0.0000   0.5059
   0.600   0.5408   0.02418   0.01801  -0.1354  0.8393  1.0000  -0.6721   0.0000   0.0000   0.0000   0.4991
   0.700   0.5594   0.02411   0.01786  -0.1366  0.8384  1.0000  -0.6855   0.0000   0.0000   0.0000   0.4928
   0.800   0.5783   0.02403   0.01770  -0.1378  0.8374  1.0000  -0.6995   0.0000   0.0000   0.0000   0.4868
   1.100   0.5861   0.02485   0.01842  -0.1339  0.8213  1.0000  -0.7098   0.0000   0.0000   0.0000   0.4766
   1.200   0.6021   0.02479   0.01831  -0.1346  0.8195  1.0000  -0.7227   0.0000   0.0000   0.0000   0.4716
   1.300   0.6191   0.02469   0.01815  -0.1355  0.8179  1.0000  -0.7366   0.0000   0.0000   0.0000   0.4667
   1.400   0.6371   0.02455   0.01796  -0.1365  0.8166  1.0000  -0.7517   0.0000   0.0000   0.0000   0.4620
   1.500   0.6558   0.02438   0.01774  -0.1377  0.8155  1.0000  -0.7678   0.0000   0.0000   0.0000   0.4575
   1.600   0.6744   0.02420   0.01752  -0.1387  0.8145  1.0000  -0.7840   0.0000   0.0000   0.0000   0.4532
   1.700   0.6934   0.02401   0.01729  -0.1399  0.8135  1.0000  -0.8007   0.0000   0.0000   0.0000   0.4491
   1.800   0.7129   0.02379   0.01703  -0.1411  0.8127  1.0000  -0.8188   0.0000   0.0000   0.0000   0.4452
   1.900   0.7331   0.02353   0.01673  -0.1425  0.8120  1.0000  -0.8377   0.0000   0.0000   0.0000   0.4414
   2.000   0.7539   0.02324   0.01642  -0.1439  0.8114  1.0000  -0.8570   0.0000   0.0000   0.0000   0.4378
   2.200   0.7398   0.02447   0.01764  -0.1382  0.7945  1.0000  -0.8548   0.0000   0.0000   0.0000   0.4336
   2.300   0.7581   0.02422   0.01737  -0.1392  0.7932  1.0000  -0.8739   0.0000   0.0000   0.0000   0.4302
   2.400   0.7768   0.02393   0.01707  -0.1402  0.7919  1.0000  -0.8936   0.0000   0.0000   0.0000   0.4270
   2.500   0.7963   0.02360   0.01672  -0.1413  0.7909  1.0000  -0.9157   0.0000   0.0000   0.0000   0.4239
   2.600   0.8165   0.02326   0.01636  -0.1426  0.7899  1.0000  -0.9384   0.0000   0.0000   0.0000   0.4209
   2.700   0.8374   0.02290   0.01598  -0.1440  0.7891  1.0000  -0.9620   0.0000   0.0000   0.0000   0.4181
   2.800   0.8593   0.02251   0.01559  -0.1455  0.7883  1.0000  -0.9888   0.0000   0.0000   0.0000   0.4154
   2.900   0.8819   0.02212   0.01519  -0.1473  0.7875  1.0000  -1.0164   0.0000   0.0000   0.0000   0.4129
   3.000   0.9057   0.02174   0.01480  -0.1492  0.7867  1.0000  -1.0473   0.0000   0.0000   0.0000   0.4106
   3.100   0.9296   0.02135   0.01441  -0.1512  0.7859  1.0000  -1.0796   0.0000   0.0000   0.0000   0.4083
   3.300   0.9120   0.02243   0.01550  -0.1443  0.7691  1.0000  -1.0786   0.0000   0.0000   0.0000   0.4036
   3.400   0.9333   0.02201   0.01508  -0.1457  0.7676  1.0000  -1.1110   0.0000   0.0000   0.0000   0.4014
   3.500   0.9559   0.02157   0.01467  -0.1474  0.7662  1.0000  -1.1463   0.0000   0.0000   0.0000   0.3994
   3.600   0.9799   0.02111   0.01421  -0.1493  0.7649  1.0000  -1.1833   0.0000   0.0000   0.0000   0.3974
   3.700   1.0035   0.02064   0.01374  -0.1511  0.7635  1.0000  -1.2202   0.0000   0.0000   0.0000   0.3956
   3.800   1.0271   0.02018   0.01327  -0.1530  0.7621  1.0000  -1.2574   0.0000   0.0000   0.0000   0.3938
   3.900   1.0518   0.01972   0.01281  -0.1551  0.7606  1.0000  -1.2960   0.0000   0.0000   0.0000   0.3921
   4.000   1.0292   0.02067   0.01380  -0.1492  0.7492  1.0000  -1.2801   0.0000   0.0000   0.0000   0.3896
   4.100   1.0452   0.02041   0.01355  -0.1498  0.7457  1.0000  -1.3090   0.0000   0.0000   0.0000   0.3878
   4.200   1.0647   0.02004   0.01318  -0.1509  0.7428  1.0000  -1.3442   0.0000   0.0000   0.0000   0.3861
   4.300   1.0861   0.01961   0.01275  -0.1524  0.7401  1.0000  -1.3842   0.0000   0.0000   0.0000   0.3845
   4.400   1.1098   0.01913   0.01227  -0.1542  0.7377  1.0000  -1.4274   0.0000   0.0000   0.0000   0.3830
   4.500   1.1347   0.01867   0.01179  -0.1563  0.7351  1.0000  -1.4726   0.0000   0.0000   0.0000   0.3817
   4.600   1.1244   0.01919   0.01235  -0.1524  0.7263  1.0000  -1.4715   0.0000   0.0000   0.0000   0.3794
   4.700   1.1352   0.01907   0.01230  -0.1521  0.7208  1.0000  -1.4984   0.0000   0.0000   0.0000   0.3776
   4.800   1.1535   0.01873   0.01196  -0.1530  0.7165  1.0000  -1.5375   0.0000   0.0000   0.0000   0.3762
   4.900   1.1751   0.01832   0.01154  -0.1545  0.7126  1.0000  -1.5878   0.0000   0.0000   0.0000   0.3749
   5.000   1.1900   0.01815   0.01136  -0.1549  0.7076  1.0000  -1.6294   0.0000   0.0000   0.0000   0.3734
   5.100   1.1899   0.01835   0.01160  -0.1527  0.6999  1.0000  -1.6461   0.0000   0.0000   0.0000   0.3715
   5.200   1.2023   0.01819   0.01145  -0.1526  0.6937  1.0000  -1.6841   0.0000   0.0000   0.0000   0.3699
   5.300   1.2205   0.01789   0.01112  -0.1536  0.6882  1.0000  -1.7322   0.0000   0.0000   0.0000   0.3687
   5.400   1.2349   0.01774   0.01096  -0.1539  0.6821  1.0000  -1.7742   0.0000   0.0000   0.0000   0.3673
   5.500   1.2373   0.01787   0.01113  -0.1521  0.6739  1.0000  -1.7956   0.0000   0.0000   0.0000   0.3655
   5.600   1.2490   0.01775   0.01101  -0.1519  0.6667  1.0000  -1.8334   0.0000   0.0000   0.0000   0.3641
   5.700   1.2684   0.01749   0.01068  -0.1531  0.6602  1.0000  -1.8849   0.0000   0.0000   0.0000   0.3630
   5.800   1.2709   0.01763   0.01087  -0.1513  0.6515  1.0000  -1.9069   0.0000   0.0000   0.0000   0.3612
   5.900   1.2790   0.01762   0.01091  -0.1505  0.6429  1.0000  -1.9390   0.0000   0.0000   0.0000   0.3597
   6.000   1.2963   0.01745   0.01067  -0.1514  0.6350  1.0000  -1.9888   0.0000   0.0000   0.0000   0.3586
   6.100   1.2997   0.01758   0.01084  -0.1498  0.6258  1.0000  -2.0157   0.0000   0.0000   0.0000   0.3570
   6.200   1.3079   0.01760   0.01086  -0.1490  0.6164  1.0000  -2.0522   0.0000   0.0000   0.0000   0.3555
   6.300   1.3220   0.01755   0.01073  -0.1493  0.6073  1.0000  -2.1007   0.0000   0.0000   0.0000   0.3544
   6.400   1.3250   0.01769   0.01092  -0.1477  0.5971  1.0000  -2.1273   0.0000   0.0000   0.0000   0.3527
   6.500   1.3357   0.01772   0.01089  -0.1474  0.5871  1.0000  -2.1695   0.0000   0.0000   0.0000   0.3515
   6.600   1.3430   0.01782   0.01099  -0.1465  0.5771  1.0000  -2.2049   0.0000   0.0000   0.0000   0.3501
   6.700   1.3495   0.01793   0.01108  -0.1455  0.5661  1.0000  -2.2391   0.0000   0.0000   0.0000   0.3487
   6.800   1.3589   0.01802   0.01110  -0.1450  0.5552  1.0000  -2.2793   0.0000   0.0000   0.0000   0.3474
   6.900   1.3630   0.01818   0.01127  -0.1436  0.5434  1.0000  -2.3087   0.0000   0.0000   0.0000   0.3459
   7.000   1.3719   0.01831   0.01130  -0.1430  0.5315  1.0000  -2.3484   0.0000   0.0000   0.0000   0.3446
   7.100   1.3749   0.01850   0.01150  -0.1414  0.5191  1.0000  -2.3757   0.0000   0.0000   0.0000   0.3431
   7.200   1.3823   0.01868   0.01157  -0.1406  0.5064  1.0000  -2.4127   0.0000   0.0000   0.0000   0.3418
   7.300   1.3848   0.01888   0.01179  -0.1389  0.4938  1.0000  -2.4391   0.0000   0.0000   0.0000   0.3403
   7.400   1.3904   0.01911   0.01194  -0.1378  0.4809  1.0000  -2.4764   0.0000   0.0000   0.0000   0.3389
   7.500   1.3924   0.01933   0.01217  -0.1361  0.4681  1.0000  -2.5050   0.0000   0.0000   0.0000   0.3374
   7.600   1.3967   0.01961   0.01233  -0.1347  0.4553  1.0000  -2.5397   0.0000   0.0000   0.0000   0.3360
   7.700   1.3985   0.01987   0.01259  -0.1330  0.4421  1.0000  -2.5682   0.0000   0.0000   0.0000   0.3345
   7.800   1.4017   0.02019   0.01279  -0.1315  0.4293  1.0000  -2.6002   0.0000   0.0000   0.0000   0.3331
   7.900   1.4035   0.02048   0.01308  -0.1299  0.4158  1.0000  -2.6287   0.0000   0.0000   0.0000   0.3316
   8.000   1.4059   0.02084   0.01333  -0.1283  0.4030  1.0000  -2.6590   0.0000   0.0000   0.0000   0.3302
   8.100   1.4076   0.02117   0.01363  -0.1267  0.3893  1.0000  -2.6874   0.0000   0.0000   0.0000   0.3288
   8.200   1.4094   0.02157   0.01393  -0.1251  0.3767  1.0000  -2.7178   0.0000   0.0000   0.0000   0.3274
   8.300   1.4108   0.02194   0.01427  -0.1235  0.3632  1.0000  -2.7490   0.0000   0.0000   0.0000   0.3260
   8.400   1.4121   0.02239   0.01460  -0.1219  0.3510  1.0000  -2.7802   0.0000   0.0000   0.0000   0.3246
   8.500   1.4137   0.02279   0.01497  -0.1203  0.3379  1.0000  -2.8117   0.0000   0.0000   0.0000   0.3233
   8.600   1.4149   0.02328   0.01535  -0.1188  0.3263  1.0000  -2.8425   0.0000   0.0000   0.0000   0.3220
   8.700   1.4167   0.02370   0.01575  -0.1173  0.3138  1.0000  -2.8744   0.0000   0.0000   0.0000   0.3207
   8.800   1.4173   0.02425   0.01616  -0.1157  0.3033  1.0000  -2.9070   0.0000   0.0000   0.0000   0.3194
   8.900   1.4197   0.02466   0.01660  -0.1144  0.2915  1.0000  -2.9443   0.0000   0.0000   0.0000   0.3182
   9.000   1.4206   0.02522   0.01705  -0.1130  0.2813  1.0000  -2.9779   0.0000   0.0000   0.0000   0.3169
   9.100   1.4231   0.02570   0.01751  -0.1117  0.2708  1.0000  -3.0154   0.0000   0.0000   0.0000   0.3158
   9.200   1.4246   0.02622   0.01798  -0.1104  0.2609  1.0000  -3.0506   0.0000   0.0000   0.0000   0.3146
   9.300   1.4257   0.02684   0.01851  -0.1090  0.2522  1.0000  -3.0847   0.0000   0.0000   0.0000   0.3134
   9.400   1.4289   0.02729   0.01900  -0.1079  0.2426  1.0000  -3.1240   0.0000   0.0000   0.0000   0.3123
   9.500   1.4304   0.02786   0.01951  -0.1067  0.2344  1.0000  -3.1595   0.0000   0.0000   0.0000   0.3112
   9.600   1.4327   0.02849   0.02005  -0.1056  0.2267  1.0000  -3.1964   0.0000   0.0000   0.0000   0.3101
   9.700   1.4362   0.02896   0.02057  -0.1046  0.2187  1.0000  -3.2406   0.0000   0.0000   0.0000   0.3091
   9.800   1.4385   0.02954   0.02110  -0.1035  0.2117  1.0000  -3.2823   0.0000   0.0000   0.0000   0.3081
   9.900   1.4409   0.03028   0.02170  -0.1025  0.2049  1.0000  -3.3241   0.0000   0.0000   0.0000   0.3071
  10.000   1.4450   0.03074   0.02224  -0.1016  0.1985  1.0000  -3.3704   0.0000   0.0000   0.0000   0.3061
  10.100   1.4484   0.03126   0.02279  -0.1007  0.1923  1.0000  -3.4154   0.0000   0.0000   0.0000   0.3051
  10.200   1.4510   0.03187   0.02335  -0.0997  0.1866  1.0000  -3.4585   0.0000   0.0000   0.0000   0.3042
  10.300   1.4553   0.03265   0.02398  -0.0990  0.1802  1.0000  -3.5062   0.0000   0.0000   0.0000   0.3033
  10.400   1.4589   0.03312   0.02455  -0.0981  0.1754  1.0000  -3.5514   0.0000   0.0000   0.0000   0.3024
  10.500   1.4624   0.03365   0.02513  -0.0972  0.1703  1.0000  -3.5967   0.0000   0.0000   0.0000   0.3014
  10.600   1.4653   0.03422   0.02571  -0.0963  0.1655  1.0000  -3.6413   0.0000   0.0000   0.0000   0.3005
  10.700   1.4685   0.03492   0.02632  -0.0955  0.1608  1.0000  -3.6872   0.0000   0.0000   0.0000   0.2997
  10.800   1.4745   0.03564   0.02699  -0.0950  0.1556  1.0000  -3.7399   0.0000   0.0000   0.0000   0.2989
  10.900   1.4781   0.03616   0.02761  -0.0942  0.1517  1.0000  -3.7853   0.0000   0.0000   0.0000   0.2980
  11.000   1.4821   0.03672   0.02821  -0.0934  0.1477  1.0000  -3.8322   0.0000   0.0000   0.0000   0.2972
  11.100   1.4856   0.03732   0.02886  -0.0927  0.1440  1.0000  -3.8785   0.0000   0.0000   0.0000   0.2963
  11.200   1.4892   0.03797   0.02950  -0.0919  0.1405  1.0000  -3.9254   0.0000   0.0000   0.0000   0.2955
  11.400   1.5033   0.03947   0.03093  -0.0912  0.1323  1.0000  -4.0375   0.0000   0.0000   0.0000   0.2941
  11.500   1.5066   0.04005   0.03161  -0.0904  0.1295  1.0000  -4.0813   0.0000   0.0000   0.0000   0.2933
  11.600   1.5102   0.04066   0.03229  -0.0897  0.1264  1.0000  -4.1265   0.0000   0.0000   0.0000   0.2925
  11.700   1.5135   0.04128   0.03295  -0.0890  0.1234  1.0000  -4.1724   0.0000   0.0000   0.0000   0.2917
  11.800   1.5167   0.04192   0.03360  -0.0883  0.1206  1.0000  -4.2188   0.0000   0.0000   0.0000   0.2909
  11.900   1.5204   0.04261   0.03428  -0.0877  0.1177  1.0000  -4.2675   0.0000   0.0000   0.0000   0.2902
  12.000   1.5363   0.04368   0.03519  -0.0883  0.1123  1.0000  -4.3514   0.0000   0.0000   0.0000   0.2898
  12.100   1.5383   0.04430   0.03593  -0.0874  0.1109  1.0000  -4.3904   0.0000   0.0000   0.0000   0.2890
  12.200   1.5413   0.04497   0.03671  -0.0867  0.1090  1.0000  -4.4319   0.0000   0.0000   0.0000   0.2882
  12.300   1.5447   0.04566   0.03750  -0.0860  0.1069  1.0000  -4.4749   0.0000   0.0000   0.0000   0.2875
  12.400   1.5481   0.04636   0.03827  -0.0853  0.1047  1.0000  -4.5189   0.0000   0.0000   0.0000   0.2867
  12.500   1.5513   0.04706   0.03902  -0.0846  0.1026  1.0000  -4.5633   0.0000   0.0000   0.0000   0.2860
  12.600   1.5542   0.04776   0.03975  -0.0840  0.1005  1.0000  -4.6081   0.0000   0.0000   0.0000   0.2853
  12.700   1.5571   0.04847   0.04048  -0.0834  0.0985  1.0000  -4.6539   0.0000   0.0000   0.0000   0.2846
  12.800   1.5609   0.04924   0.04123  -0.0829  0.0964  1.0000  -4.7033   0.0000   0.0000   0.0000   0.2840
  12.900   1.5794   0.05074   0.04268  -0.0838  0.0918  1.0000  -4.7898   0.0000   0.0000   0.0000   0.2838
  13.000   1.5797   0.05146   0.04353  -0.0829  0.0909  1.0000  -4.8223   0.0000   0.0000   0.0000   0.2830
  13.100   1.5809   0.05226   0.04444  -0.0821  0.0898  1.0000  -4.8561   0.0000   0.0000   0.0000   0.2823
  13.200   1.5827   0.05311   0.04539  -0.0814  0.0886  1.0000  -4.8909   0.0000   0.0000   0.0000   0.2816
  13.300   1.5842   0.05400   0.04639  -0.0806  0.0872  1.0000  -4.9242   0.0000   0.0000   0.0000   0.2809
  13.400   1.5855   0.05491   0.04740  -0.0800  0.0858  1.0000  -4.9576   0.0000   0.0000   0.0000   0.2802
  13.500   1.5866   0.05583   0.04840  -0.0793  0.0843  1.0000  -4.9908   0.0000   0.0000   0.0000   0.2796
  13.600   1.5877   0.05674   0.04938  -0.0787  0.0829  1.0000  -5.0262   0.0000   0.0000   0.0000   0.2789
  13.700   1.5889   0.05763   0.05032  -0.0781  0.0815  1.0000  -5.0684   0.0000   0.0000   0.0000   0.2783
  13.800   1.5903   0.05849   0.05122  -0.0775  0.0801  1.0000  -5.1131   0.0000   0.0000   0.0000   0.2777
  13.900   1.5922   0.05934   0.05208  -0.0770  0.0786  1.0000  -5.1611   0.0000   0.0000   0.0000   0.2772
  14.000   1.5950   0.06024   0.05299  -0.0766  0.0771  1.0000  -5.2129   0.0000   0.0000   0.0000   0.2766
  14.100   1.6006   0.06153   0.05427  -0.0765  0.0752  1.0000  -5.2703   0.0000   0.0000   0.0000   0.2762
  14.200   1.6051   0.06406   0.05692  -0.0764  0.0730  1.0000  -5.2978   0.0000   0.0000   0.0000   0.2759
  14.300   1.6024   0.06514   0.05812  -0.0757  0.0726  1.0000  -5.3194   0.0000   0.0000   0.0000   0.2753
  14.400   1.5998   0.06633   0.05944  -0.0750  0.0720  1.0000  -5.3392   0.0000   0.0000   0.0000   0.2747
  14.500   1.5972   0.06760   0.06083  -0.0743  0.0715  1.0000  -5.3578   0.0000   0.0000   0.0000   0.2742
  14.600   1.5946   0.06895   0.06231  -0.0738  0.0709  1.0000  -5.3748   0.0000   0.0000   0.0000   0.2737
  14.700   1.5916   0.07038   0.06385  -0.0732  0.0702  1.0000  -5.3914   0.0000   0.0000   0.0000   0.2733
  14.800   1.5884   0.07186   0.06546  -0.0728  0.0696  1.0000  -5.4202   0.0000   0.0000   0.0000   0.2728
  14.900   1.5851   0.07340   0.06711  -0.0723  0.0689  1.0000  -5.4477   0.0000   0.0000   0.0000   0.2725
  15.000   1.5813   0.07498   0.06881  -0.0720  0.0683  1.0000  -5.4725   0.0000   0.0000   0.0000   0.2721


