xflr5 v6.61

 Calculated polar for: SG6043

 1 1 Reynolds number fixed          Mach number fixed         

 xtrf =   1.000 (top)        1.000 (bottom)
 Mach =   0.000     Re =     0.150 e 6     Ncrit =   9.000

  alpha     CL        CD       CDp       Cm    Top Xtr Bot Xtr   Cpmin    Chinge    XCp    
 ------- -------- --------- --------- -------- ------- ------- -------- --------- ---------
 -10.000  -0.3288   0.13413   0.13016  -0.0272  1.0000  0.0362  -1.4052   0.0000   0.0000   0.0000   0.1563
  -9.900  -0.3296   0.13338   0.12943  -0.0267  1.0000  0.0365  -1.4053   0.0000   0.0000   0.0000   0.1581
  -9.800  -0.3305   0.13263   0.12870  -0.0263  1.0000  0.0368  -1.4065   0.0000   0.0000   0.0000   0.1599
  -9.700  -0.3314   0.13189   0.12798  -0.0258  1.0000  0.0371  -1.4085   0.0000   0.0000   0.0000   0.1616
  -9.600  -0.3324   0.13116   0.12726  -0.0254  1.0000  0.0374  -1.4115   0.0000   0.0000   0.0000   0.1633
  -9.500  -0.3335   0.13042   0.12654  -0.0249  1.0000  0.0377  -1.4152   0.0000   0.0000   0.0000   0.1650
  -9.400  -0.3347   0.12969   0.12583  -0.0245  1.0000  0.0381  -1.4198   0.0000   0.0000   0.0000   0.1667
  -9.300  -0.3359   0.12896   0.12511  -0.0241  1.0000  0.0384  -1.4252   0.0000   0.0000   0.0000   0.1684
  -9.200  -0.3372   0.12823   0.12440  -0.0237  1.0000  0.0388  -1.4315   0.0000   0.0000   0.0000   0.1700
  -9.100  -0.3386   0.12750   0.12369  -0.0233  1.0000  0.0391  -1.4387   0.0000   0.0000   0.0000   0.1716
  -9.000  -0.3401   0.12679   0.12299  -0.0230  1.0000  0.0395  -1.4470   0.0000   0.0000   0.0000   0.1732
  -8.900  -0.3417   0.12607   0.12229  -0.0226  1.0000  0.0399  -1.4564   0.0000   0.0000   0.0000   0.1747
  -8.800  -0.3433   0.12538   0.12162  -0.0223  1.0000  0.0403  -1.4672   0.0000   0.0000   0.0000   0.1762
  -8.700  -0.3452   0.12471   0.12096  -0.0220  1.0000  0.0407  -1.4799   0.0000   0.0000   0.0000   0.1776
  -8.600  -0.3442   0.12379   0.12006  -0.0226  0.9995  0.0413  -1.4969   0.0000   0.0000   0.0000   0.1756
  -8.500  -0.3392   0.12264   0.11891  -0.0250  0.9979  0.0421  -1.5275   0.0000   0.0000   0.0000   0.1675
  -8.400  -0.3358   0.12188   0.11815  -0.0279  0.9960  0.0428  -1.5747   0.0000   0.0000   0.0000   0.1581
  -8.300  -0.3330   0.12129   0.11757  -0.0312  0.9938  0.0432  -1.6292   0.0000   0.0000   0.0000   0.1476
  -8.200  -0.3293   0.12060   0.11688  -0.0344  0.9919  0.0435  -1.6786   0.0000   0.0000   0.0000   0.1367
  -8.100  -0.3260   0.11975   0.11604  -0.0369  0.9899  0.0437  -1.7154   0.0000   0.0000   0.0000   0.1282
  -8.000  -0.3246   0.11888   0.11518  -0.0385  0.9873  0.0438  -1.7461   0.0000   0.0000   0.0000   0.1228
  -7.900  -0.3231   0.11797   0.11428  -0.0401  0.9848  0.0438  -1.7754   0.0000   0.0000   0.0000   0.1174
  -7.800  -0.3207   0.11699   0.11331  -0.0415  0.9826  0.0439  -1.7965   0.0000   0.0000   0.0000   0.1121
  -7.700  -0.3182   0.11597   0.11229  -0.0430  0.9805  0.0440  -1.8175   0.0000   0.0000   0.0000   0.1064
  -7.600  -0.3153   0.11491   0.11123  -0.0446  0.9786  0.0440  -1.8390   0.0000   0.0000   0.0000   0.0999
  -7.500  -0.3044   0.10853   0.10486  -0.0418  0.9801  0.0454  -1.7524   0.0000   0.0000   0.0000   0.1038
  -7.400  -0.2916   0.10665   0.10295  -0.0404  0.9799  0.0467  -1.6393   0.0000   0.0000   0.0000   0.1023
  -7.300  -0.2835   0.10536   0.10166  -0.0407  0.9788  0.0478  -1.5918   0.0000   0.0000   0.0000   0.0968
  -7.200  -0.2765   0.10413   0.10043  -0.0418  0.9776  0.0489  -1.5659   0.0000   0.0000   0.0000   0.0893
  -7.100  -0.2696   0.10288   0.09917  -0.0432  0.9763  0.0500  -1.5514   0.0000   0.0000   0.0000   0.0799
  -7.000  -0.2626   0.10161   0.09790  -0.0450  0.9751  0.0510  -1.5441   0.0000   0.0000   0.0000   0.0687
  -6.900  -0.2598   0.10055   0.09685  -0.0458  0.9729  0.0518  -1.5448   0.0000   0.0000   0.0000   0.0638
  -6.800  -0.2616   0.09973   0.09604  -0.0455  0.9693  0.0522  -1.5506   0.0000   0.0000   0.0000   0.0666
  -6.700  -0.2607   0.09876   0.09509  -0.0460  0.9664  0.0528  -1.5561   0.0000   0.0000   0.0000   0.0643
  -6.600  -0.2590   0.09777   0.09410  -0.0468  0.9638  0.0535  -1.5630   0.0000   0.0000   0.0000   0.0599
  -6.500  -0.2570   0.09679   0.09312  -0.0479  0.9614  0.0542  -1.5726   0.0000   0.0000   0.0000   0.0543
  -6.400  -0.2546   0.09580   0.09215  -0.0494  0.9593  0.0550  -1.5863   0.0000   0.0000   0.0000   0.0466
  -6.300  -0.2496   0.09470   0.09105  -0.0522  0.9573  0.0559  -1.6090   0.0000   0.0000   0.0000   0.0315
  -6.200  -0.2371   0.09341   0.08974  -0.0595  0.9552  0.0574  -1.6671   0.0000   0.0000   0.0000  -0.0105
  -6.100  -0.2471   0.09307   0.08943  -0.0573  0.9495  0.0574  -1.6828   0.0000   0.0000   0.0000   0.0092
  -6.000  -0.2421   0.09208   0.08843  -0.0615  0.9448  0.0580  -1.7287   0.0000   0.0000   0.0000  -0.0127
  -5.900  -0.2306   0.09047   0.08680  -0.0672  0.9414  0.0585  -1.7690   0.0000   0.0000   0.0000  -0.0506
  -5.800  -0.2177   0.08869   0.08498  -0.0719  0.9392  0.0587  -1.7870   0.0000   0.0000   0.0000  -0.0895
  -5.700  -0.2045   0.08675   0.08300  -0.0763  0.9376  0.0588  -1.8026   0.0000   0.0000   0.0000  -0.1330
  -5.600  -0.1909   0.08474   0.08093  -0.0805  0.9363  0.0589  -1.8159   0.0000   0.0000   0.0000  -0.1818
  -5.500  -0.1926   0.07967   0.07592  -0.0817  0.9355  0.0599  -1.8628   0.0000   0.0000   0.0000  -0.1847
  -5.400  -0.1884   0.07798   0.07426  -0.0803  0.9349  0.0606  -1.8052   0.0000   0.0000   0.0000  -0.1868
  -5.300  -0.1814   0.07665   0.07295  -0.0797  0.9342  0.0613  -1.7468   0.0000   0.0000   0.0000  -0.2006
  -5.200  -0.1948   0.07646   0.07278  -0.0767  0.9278  0.0612  -1.7705   0.0000   0.0000   0.0000  -0.1536
  -5.100  -0.1928   0.07554   0.07188  -0.0756  0.9251  0.0617  -1.7336   0.0000   0.0000   0.0000  -0.1518
  -5.000  -0.1881   0.07451   0.07085  -0.0752  0.9228  0.0623  -1.6933   0.0000   0.0000   0.0000  -0.1595
  -4.900  -0.1814   0.07339   0.06972  -0.0754  0.9208  0.0630  -1.6527   0.0000   0.0000   0.0000  -0.1755
  -4.800  -0.1729   0.07216   0.06849  -0.0762  0.9190  0.0639  -1.6141   0.0000   0.0000   0.0000  -0.2009
  -4.700  -0.1628   0.07081   0.06713  -0.0776  0.9174  0.0650  -1.5793   0.0000   0.0000   0.0000  -0.2377
  -4.600  -0.1511   0.06932   0.06562  -0.0797  0.9160  0.0663  -1.5484   0.0000   0.0000   0.0000  -0.2892
  -4.500  -0.1377   0.06769   0.06396  -0.0825  0.9148  0.0678  -1.5224   0.0000   0.0000   0.0000  -0.3613
  -4.400  -0.1226   0.06590   0.06211  -0.0859  0.9137  0.0697  -1.5021   0.0000   0.0000   0.0000  -0.4645
  -4.300  -0.1041   0.06387   0.06002  -0.0905  0.9128  0.0723  -1.4927   0.0000   0.0000   0.0000  -0.6354
  -4.200  -0.0550   0.06274   0.05844  -0.1038  0.9117  0.0782  -1.5560   0.0000   0.0000   0.0000  -1.6657
  -4.100  -0.0646   0.06261   0.05831  -0.1009  0.9058  0.0783  -1.5639   0.0000   0.0000   0.0000  -1.3347
  -4.000  -0.0576   0.06177   0.05738  -0.1016  0.9022  0.0784  -1.5592   0.0000   0.0000   0.0000  -1.5401
  -3.900  -0.0537   0.05576   0.05137  -0.1050  0.9007  0.0805  -1.6107   0.0000   0.0000   0.0000  -1.7347
  -3.800  -0.0473   0.05426   0.04993  -0.1050  0.8987  0.0814  -1.5621   0.0000   0.0000   0.0000  -2.0020
  -3.700  -0.0387   0.05307   0.04878  -0.1052  0.8970  0.0825  -1.5257   0.0000   0.0000   0.0000  -2.5064
  -3.600  -0.0283   0.05201   0.04773  -0.1057  0.8955  0.0838  -1.4903   0.0000   0.0000   0.0000  -3.5354
  -3.500  -0.0163   0.05098   0.04670  -0.1066  0.8941  0.0855  -1.4579   0.0000   0.0000   0.0000  -6.3784
  -3.400  -0.0023   0.04986   0.04554  -0.1081  0.8929  0.0877  -1.4327   0.0000   0.0000   0.0000  -46.4624
  -3.300   0.0141   0.04860   0.04422  -0.1102  0.8919  0.0908  -1.4168   0.0000   0.0000   0.0000   8.1767
  -3.200   0.0506   0.05013   0.04525  -0.1150  0.8906  0.1018  -1.4337   0.0000   0.0000   0.0000   2.5485
  -3.100   0.0643   0.04470   0.03975  -0.1194  0.8904  0.1053  -1.4686   0.0000   0.0000   0.0000   2.1286
  -3.000   0.0772   0.04329   0.03841  -0.1204  0.8897  0.1072  -1.4322   0.0000   0.0000   0.0000   1.8253
  -2.600   0.1693   0.03512   0.02906  -0.1313  0.8880  0.0815  -1.5905   0.0000   0.0000   0.0000   1.0328
  -2.500   0.1944   0.03280   0.02619  -0.1328  0.8879  0.0595  -1.7307   0.0000   0.0000   0.0000   0.9397
  -2.300   0.2064   0.03118   0.02440  -0.1317  0.8816  0.0570  -1.7186   0.0000   0.0000   0.0000   0.8937
  -2.200   0.2156   0.03038   0.02347  -0.1316  0.8787  0.0562  -1.7083   0.0000   0.0000   0.0000   0.8658
  -2.100   0.2283   0.02959   0.02252  -0.1320  0.8767  0.0555  -1.6897   0.0000   0.0000   0.0000   0.8331
  -2.000   0.2423   0.02885   0.02164  -0.1325  0.8749  0.0550  -1.6651   0.0000   0.0000   0.0000   0.8015
  -1.900   0.2571   0.02818   0.02082  -0.1332  0.8733  0.0547  -1.6349   0.0000   0.0000   0.0000   0.7720
  -1.800   0.2724   0.02757   0.02008  -0.1338  0.8719  0.0548  -1.5995   0.0000   0.0000   0.0000   0.7449
  -1.700   0.2882   0.02701   0.01941  -0.1346  0.8706  0.0552  -1.5594   0.0000   0.0000   0.0000   0.7202
  -1.600   0.3043   0.02650   0.01880  -0.1353  0.8694  0.0560  -1.5153   0.0000   0.0000   0.0000   0.6976
  -1.500   0.3206   0.02605   0.01827  -0.1361  0.8683  0.0570  -1.4678   0.0000   0.0000   0.0000   0.6771
  -1.400   0.3371   0.02568   0.01783  -0.1369  0.8673  0.0583  -1.4164   0.0000   0.0000   0.0000   0.6584
  -1.300   0.3539   0.02493   0.01704  -0.1378  0.8666  0.0607  -1.3794   0.0000   0.0000   0.0000   0.6415
  -1.200   0.3706   0.02438   0.01650  -0.1389  0.8659  0.0650  -1.3410   0.0000   0.0000   0.0000   0.6264
  -1.100   0.3875   0.02416   0.01632  -0.1399  0.8650  0.0721  -1.2995   0.0000   0.0000   0.0000   0.6125
  -1.000   0.4047   0.02374   0.01589  -0.1409  0.8643  0.0822  -1.2823   0.0000   0.0000   0.0000   0.5993
  -0.900   0.4226   0.02332   0.01550  -0.1420  0.8636  0.1007  -1.2689   0.0000   0.0000   0.0000   0.5871
  -0.800   0.4409   0.02283   0.01508  -0.1433  0.8630  0.1267  -1.2403   0.0000   0.0000   0.0000   0.5759
  -0.700   0.4329   0.02325   0.01552  -0.1401  0.8560  0.1296  -1.2388   0.0000   0.0000   0.0000   0.5744
  -0.600   0.4396   0.02319   0.01555  -0.1395  0.8521  0.1495  -1.2049   0.0000   0.0000   0.0000   0.5679
  -0.500   0.4518   0.02300   0.01547  -0.1398  0.8497  0.1812  -1.1566   0.0000   0.0000   0.0000   0.5598
  -0.400   0.4670   0.02252   0.01536  -0.1408  0.8481  0.2562  -1.1046   0.0000   0.0000   0.0000   0.5517
  -0.300   0.4797   0.02156   0.01554  -0.1413  0.8470  0.5769  -1.0527   0.0000   0.0000   0.0000   0.5447
  -0.200   0.4891   0.02116   0.01554  -0.1404  0.8455  0.7197  -1.0036   0.0000   0.0000   0.0000   0.5369
  -0.100   0.4960   0.02077   0.01540  -0.1387  0.8439  0.8283  -0.9594   0.0000   0.0000   0.0000   0.5293
   0.100   0.5291   0.02030   0.01487  -0.1401  0.8416  1.0000  -0.8265   0.0000   0.0000   0.0000   0.5141
   0.200   0.5468   0.02019   0.01466  -0.1411  0.8406  1.0000  -0.7573   0.0000   0.0000   0.0000   0.5074
   0.300   0.5648   0.02006   0.01445  -0.1422  0.8398  1.0000  -0.6877   0.0000   0.0000   0.0000   0.5009
   0.400   0.5830   0.01991   0.01422  -0.1434  0.8390  1.0000  -0.6993   0.0000   0.0000   0.0000   0.4949
   0.500   0.6015   0.01976   0.01400  -0.1446  0.8384  1.0000  -0.7123   0.0000   0.0000   0.0000   0.4892
   0.600   0.6203   0.01959   0.01376  -0.1458  0.8378  1.0000  -0.7260   0.0000   0.0000   0.0000   0.4838
   0.700   0.6397   0.01941   0.01352  -0.1472  0.8373  1.0000  -0.7404   0.0000   0.0000   0.0000   0.4786
   0.800   0.6596   0.01923   0.01328  -0.1486  0.8367  1.0000  -0.7553   0.0000   0.0000   0.0000   0.4738
   1.100   0.6617   0.02014   0.01412  -0.1433  0.8195  1.0000  -0.7641   0.0000   0.0000   0.0000   0.4646
   1.200   0.6791   0.01995   0.01389  -0.1443  0.8184  1.0000  -0.7784   0.0000   0.0000   0.0000   0.4603
   1.300   0.6973   0.01974   0.01363  -0.1453  0.8174  1.0000  -0.7943   0.0000   0.0000   0.0000   0.4562
   1.400   0.7160   0.01952   0.01337  -0.1465  0.8165  1.0000  -0.8106   0.0000   0.0000   0.0000   0.4523
   1.500   0.7351   0.01929   0.01311  -0.1478  0.8157  1.0000  -0.8273   0.0000   0.0000   0.0000   0.4486
   1.600   0.7548   0.01906   0.01284  -0.1491  0.8149  1.0000  -0.8455   0.0000   0.0000   0.0000   0.4450
   1.700   0.7754   0.01881   0.01256  -0.1507  0.8142  1.0000  -0.8646   0.0000   0.0000   0.0000   0.4416
   1.800   0.7966   0.01856   0.01229  -0.1524  0.8135  1.0000  -0.8841   0.0000   0.0000   0.0000   0.4385
   1.900   0.8177   0.01832   0.01202  -0.1540  0.8127  1.0000  -0.9051   0.0000   0.0000   0.0000   0.4354
   2.000   0.8384   0.01808   0.01175  -0.1556  0.8119  1.0000  -0.9259   0.0000   0.0000   0.0000   0.4325
   2.300   0.8445   0.01869   0.01236  -0.1505  0.7955  1.0000  -0.9488   0.0000   0.0000   0.0000   0.4248
   2.400   0.8638   0.01845   0.01210  -0.1518  0.7940  1.0000  -0.9707   0.0000   0.0000   0.0000   0.4222
   2.500   0.8837   0.01819   0.01182  -0.1532  0.7926  1.0000  -0.9943   0.0000   0.0000   0.0000   0.4197
   2.600   0.9035   0.01792   0.01153  -0.1545  0.7912  1.0000  -1.0192   0.0000   0.0000   0.0000   0.4172
   2.700   0.9235   0.01764   0.01124  -0.1559  0.7899  1.0000  -1.0446   0.0000   0.0000   0.0000   0.4149
   2.800   0.9440   0.01736   0.01094  -0.1574  0.7885  1.0000  -1.0733   0.0000   0.0000   0.0000   0.4127
   2.900   0.9655   0.01707   0.01063  -0.1591  0.7871  1.0000  -1.1033   0.0000   0.0000   0.0000   0.4106
   3.000   0.9693   0.01725   0.01082  -0.1577  0.7820  1.0000  -1.1167   0.0000   0.0000   0.0000   0.4084
   3.100   0.9692   0.01749   0.01108  -0.1555  0.7755  1.0000  -1.1266   0.0000   0.0000   0.0000   0.4061
   3.200   0.9827   0.01735   0.01097  -0.1557  0.7720  1.0000  -1.1517   0.0000   0.0000   0.0000   0.4040
   3.300   0.9992   0.01713   0.01074  -0.1565  0.7691  1.0000  -1.1803   0.0000   0.0000   0.0000   0.4020
   3.400   1.0177   0.01687   0.01046  -0.1576  0.7666  1.0000  -1.2112   0.0000   0.0000   0.0000   0.4001
   3.500   1.0377   0.01659   0.01016  -0.1590  0.7643  1.0000  -1.2440   0.0000   0.0000   0.0000   0.3983
   3.600   1.0584   0.01632   0.00987  -0.1605  0.7621  1.0000  -1.2778   0.0000   0.0000   0.0000   0.3966
   3.700   1.0694   0.01630   0.00986  -0.1603  0.7580  1.0000  -1.3008   0.0000   0.0000   0.0000   0.3948
   3.800   1.0689   0.01652   0.01011  -0.1581  0.7513  1.0000  -1.3108   0.0000   0.0000   0.0000   0.3926
   3.900   1.0799   0.01645   0.01003  -0.1578  0.7466  1.0000  -1.3339   0.0000   0.0000   0.0000   0.3908
   4.000   1.0956   0.01625   0.00983  -0.1584  0.7427  1.0000  -1.3656   0.0000   0.0000   0.0000   0.3891
   4.100   1.1139   0.01601   0.00957  -0.1595  0.7392  1.0000  -1.4014   0.0000   0.0000   0.0000   0.3876
   4.200   1.1335   0.01577   0.00930  -0.1608  0.7359  1.0000  -1.4394   0.0000   0.0000   0.0000   0.3861
   4.300   1.1367   0.01590   0.00946  -0.1592  0.7297  1.0000  -1.4561   0.0000   0.0000   0.0000   0.3842
   4.400   1.1431   0.01594   0.00952  -0.1582  0.7234  1.0000  -1.4771   0.0000   0.0000   0.0000   0.3823
   4.500   1.1558   0.01582   0.00944  -0.1582  0.7182  1.0000  -1.5065   0.0000   0.0000   0.0000   0.3807
   4.600   1.1718   0.01564   0.00923  -0.1588  0.7136  1.0000  -1.5413   0.0000   0.0000   0.0000   0.3793
   4.700   1.1896   0.01547   0.00903  -0.1599  0.7091  1.0000  -1.5851   0.0000   0.0000   0.0000   0.3780
   4.800   1.1907   0.01562   0.00923  -0.1579  0.7018  1.0000  -1.6039   0.0000   0.0000   0.0000   0.3760
   4.900   1.1995   0.01560   0.00921  -0.1572  0.6951  1.0000  -1.6355   0.0000   0.0000   0.0000   0.3744
   5.000   1.2131   0.01547   0.00906  -0.1574  0.6892  1.0000  -1.6755   0.0000   0.0000   0.0000   0.3730
   5.100   1.2292   0.01535   0.00889  -0.1581  0.6835  1.0000  -1.7196   0.0000   0.0000   0.0000   0.3717
   5.200   1.2319   0.01547   0.00906  -0.1564  0.6757  1.0000  -1.7416   0.0000   0.0000   0.0000   0.3699
   5.300   1.2407   0.01546   0.00905  -0.1558  0.6682  1.0000  -1.7740   0.0000   0.0000   0.0000   0.3683
   5.400   1.2558   0.01535   0.00889  -0.1563  0.6614  1.0000  -1.8174   0.0000   0.0000   0.0000   0.3671
   5.500   1.2626   0.01542   0.00897  -0.1553  0.6534  1.0000  -1.8467   0.0000   0.0000   0.0000   0.3655
   5.600   1.2694   0.01547   0.00903  -0.1543  0.6449  1.0000  -1.8761   0.0000   0.0000   0.0000   0.3639
   5.700   1.2820   0.01544   0.00894  -0.1544  0.6369  1.0000  -1.9159   0.0000   0.0000   0.0000   0.3626
   5.800   1.2897   0.01551   0.00905  -0.1536  0.6284  1.0000  -1.9472   0.0000   0.0000   0.0000   0.3612
   5.900   1.2965   0.01558   0.00913  -0.1527  0.6191  1.0000  -1.9771   0.0000   0.0000   0.0000   0.3597
   6.000   1.3082   0.01560   0.00908  -0.1526  0.6103  1.0000  -2.0205   0.0000   0.0000   0.0000   0.3584
   6.100   1.3141   0.01571   0.00921  -0.1515  0.6010  1.0000  -2.0524   0.0000   0.0000   0.0000   0.3569
   6.200   1.3218   0.01580   0.00928  -0.1507  0.5914  1.0000  -2.0881   0.0000   0.0000   0.0000   0.3555
   6.300   1.3322   0.01588   0.00929  -0.1504  0.5821  1.0000  -2.1295   0.0000   0.0000   0.0000   0.3543
   6.400   1.3369   0.01601   0.00945  -0.1491  0.5717  1.0000  -2.1596   0.0000   0.0000   0.0000   0.3528
   6.500   1.3451   0.01613   0.00950  -0.1484  0.5610  1.0000  -2.1971   0.0000   0.0000   0.0000   0.3514
   6.600   1.3510   0.01627   0.00963  -0.1474  0.5501  1.0000  -2.2299   0.0000   0.0000   0.0000   0.3500
   6.700   1.3571   0.01643   0.00974  -0.1463  0.5384  1.0000  -2.2634   0.0000   0.0000   0.0000   0.3486
   6.800   1.3634   0.01659   0.00986  -0.1453  0.5269  1.0000  -2.2973   0.0000   0.0000   0.0000   0.3472
   6.900   1.3682   0.01677   0.01000  -0.1440  0.5145  1.0000  -2.3285   0.0000   0.0000   0.0000   0.3458
   7.000   1.3738   0.01697   0.01014  -0.1429  0.5026  1.0000  -2.3614   0.0000   0.0000   0.0000   0.3444
   7.100   1.3777   0.01717   0.01030  -0.1415  0.4900  1.0000  -2.3909   0.0000   0.0000   0.0000   0.3429
   7.200   1.3822   0.01740   0.01045  -0.1402  0.4781  1.0000  -2.4217   0.0000   0.0000   0.0000   0.3415
   7.300   1.3854   0.01762   0.01065  -0.1387  0.4655  1.0000  -2.4501   0.0000   0.0000   0.0000   0.3400
   7.400   1.3889   0.01789   0.01087  -0.1372  0.4534  1.0000  -2.4827   0.0000   0.0000   0.0000   0.3386
   7.500   1.3916   0.01813   0.01109  -0.1356  0.4403  1.0000  -2.5132   0.0000   0.0000   0.0000   0.3371
   7.600   1.3943   0.01844   0.01131  -0.1341  0.4280  1.0000  -2.5440   0.0000   0.0000   0.0000   0.3356
   7.700   1.3968   0.01872   0.01156  -0.1325  0.4145  1.0000  -2.5741   0.0000   0.0000   0.0000   0.3342
   7.800   1.3989   0.01906   0.01181  -0.1309  0.4020  1.0000  -2.6037   0.0000   0.0000   0.0000   0.3328
   7.900   1.4011   0.01937   0.01208  -0.1293  0.3883  1.0000  -2.6335   0.0000   0.0000   0.0000   0.3314
   8.000   1.4028   0.01975   0.01237  -0.1277  0.3758  1.0000  -2.6621   0.0000   0.0000   0.0000   0.3299
   8.100   1.4047   0.02010   0.01267  -0.1261  0.3624  1.0000  -2.6911   0.0000   0.0000   0.0000   0.3286
   8.200   1.4061   0.02051   0.01300  -0.1245  0.3503  1.0000  -2.7200   0.0000   0.0000   0.0000   0.3272
   8.300   1.4081   0.02088   0.01333  -0.1230  0.3372  1.0000  -2.7529   0.0000   0.0000   0.0000   0.3258
   8.400   1.4094   0.02133   0.01369  -0.1215  0.3257  1.0000  -2.7840   0.0000   0.0000   0.0000   0.3245
   8.500   1.4117   0.02172   0.01405  -0.1201  0.3132  1.0000  -2.8177   0.0000   0.0000   0.0000   0.3232
   8.600   1.4123   0.02222   0.01445  -0.1185  0.3026  1.0000  -2.8469   0.0000   0.0000   0.0000   0.3219
   8.700   1.4152   0.02261   0.01483  -0.1172  0.2907  1.0000  -2.8820   0.0000   0.0000   0.0000   0.3207
   8.800   1.4159   0.02313   0.01525  -0.1157  0.2804  1.0000  -2.9153   0.0000   0.0000   0.0000   0.3194
   8.900   1.4189   0.02356   0.01567  -0.1145  0.2697  1.0000  -2.9547   0.0000   0.0000   0.0000   0.3182
   9.000   1.4204   0.02406   0.01610  -0.1131  0.2596  1.0000  -2.9904   0.0000   0.0000   0.0000   0.3170
   9.100   1.4219   0.02460   0.01657  -0.1118  0.2507  1.0000  -3.0257   0.0000   0.0000   0.0000   0.3159
   9.200   1.4251   0.02503   0.01701  -0.1107  0.2411  1.0000  -3.0658   0.0000   0.0000   0.0000   0.3148
   9.300   1.4264   0.02560   0.01753  -0.1094  0.2329  1.0000  -3.1007   0.0000   0.0000   0.0000   0.3136
   9.400   1.4291   0.02613   0.01802  -0.1083  0.2250  1.0000  -3.1392   0.0000   0.0000   0.0000   0.3125
   9.500   1.4325   0.02659   0.01850  -0.1073  0.2168  1.0000  -3.1801   0.0000   0.0000   0.0000   0.3115
   9.600   1.4340   0.02718   0.01902  -0.1061  0.2097  1.0000  -3.2197   0.0000   0.0000   0.0000   0.3104
   9.700   1.4358   0.02781   0.01958  -0.1049  0.2030  1.0000  -3.2597   0.0000   0.0000   0.0000   0.3093
   9.800   1.4403   0.02823   0.02006  -0.1041  0.1960  1.0000  -3.3087   0.0000   0.0000   0.0000   0.3084
   9.900   1.4431   0.02878   0.02058  -0.1031  0.1895  1.0000  -3.3525   0.0000   0.0000   0.0000   0.3074
  10.000   1.4445   0.02944   0.02116  -0.1019  0.1838  1.0000  -3.3921   0.0000   0.0000   0.0000   0.3063
  10.100   1.4478   0.03004   0.02174  -0.1010  0.1780  1.0000  -3.4368   0.0000   0.0000   0.0000   0.3054
  10.200   1.4521   0.03048   0.02225  -0.1002  0.1724  1.0000  -3.4856   0.0000   0.0000   0.0000   0.3045
  10.300   1.4552   0.03102   0.02279  -0.0993  0.1672  1.0000  -3.5312   0.0000   0.0000   0.0000   0.3035
  10.400   1.4573   0.03167   0.02338  -0.0984  0.1624  1.0000  -3.5735   0.0000   0.0000   0.0000   0.3026
  10.500   1.4600   0.03246   0.02407  -0.0975  0.1569  1.0000  -3.6162   0.0000   0.0000   0.0000   0.3017
  10.600   1.4646   0.03289   0.02459  -0.0968  0.1530  1.0000  -3.6662   0.0000   0.0000   0.0000   0.3008
  10.700   1.4687   0.03340   0.02515  -0.0960  0.1488  1.0000  -3.7145   0.0000   0.0000   0.0000   0.3000
  10.800   1.4722   0.03395   0.02573  -0.0952  0.1448  1.0000  -3.7614   0.0000   0.0000   0.0000   0.2991
  10.900   1.4750   0.03460   0.02635  -0.0944  0.1411  1.0000  -3.8062   0.0000   0.0000   0.0000   0.2982
  11.000   1.4780   0.03538   0.02705  -0.0936  0.1370  1.0000  -3.8506   0.0000   0.0000   0.0000   0.2974
  11.100   1.4833   0.03606   0.02776  -0.0930  0.1331  1.0000  -3.9014   0.0000   0.0000   0.0000   0.2966
  11.200   1.4875   0.03657   0.02836  -0.0923  0.1301  1.0000  -3.9497   0.0000   0.0000   0.0000   0.2958
  11.300   1.4914   0.03712   0.02897  -0.0916  0.1269  1.0000  -3.9977   0.0000   0.0000   0.0000   0.2950
  11.400   1.4948   0.03771   0.02959  -0.0909  0.1237  1.0000  -4.0448   0.0000   0.0000   0.0000   0.2942
  11.500   1.4977   0.03834   0.03023  -0.0901  0.1208  1.0000  -4.0908   0.0000   0.0000   0.0000   0.2934
  11.600   1.5005   0.03905   0.03092  -0.0894  0.1178  1.0000  -4.1364   0.0000   0.0000   0.0000   0.2926
  11.700   1.5090   0.04004   0.03176  -0.0893  0.1126  1.0000  -4.1965   0.0000   0.0000   0.0000   0.2920
  11.800   1.5118   0.04059   0.03242  -0.0885  0.1110  1.0000  -4.2407   0.0000   0.0000   0.0000   0.2912
  11.900   1.5152   0.04117   0.03309  -0.0878  0.1090  1.0000  -4.2869   0.0000   0.0000   0.0000   0.2904
  12.000   1.5191   0.04179   0.03378  -0.0872  0.1067  1.0000  -4.3341   0.0000   0.0000   0.0000   0.2897
  12.100   1.5228   0.04242   0.03447  -0.0865  0.1043  1.0000  -4.3815   0.0000   0.0000   0.0000   0.2890
  12.200   1.5263   0.04307   0.03516  -0.0859  0.1021  1.0000  -4.4286   0.0000   0.0000   0.0000   0.2882
  12.300   1.5292   0.04376   0.03586  -0.0853  0.1000  1.0000  -4.4750   0.0000   0.0000   0.0000   0.2875
  12.400   1.5321   0.04448   0.03659  -0.0847  0.0979  1.0000  -4.5212   0.0000   0.0000   0.0000   0.2868
  12.500   1.5365   0.04529   0.03737  -0.0842  0.0954  1.0000  -4.5720   0.0000   0.0000   0.0000   0.2862
  12.600   1.5486   0.04629   0.03832  -0.0843  0.0916  1.0000  -4.6418   0.0000   0.0000   0.0000   0.2857
  12.700   1.5504   0.04695   0.03908  -0.0836  0.0905  1.0000  -4.6822   0.0000   0.0000   0.0000   0.2850
  12.800   1.5524   0.04766   0.03989  -0.0829  0.0891  1.0000  -4.7227   0.0000   0.0000   0.0000   0.2842
  12.900   1.5550   0.04840   0.04071  -0.0823  0.0876  1.0000  -4.7647   0.0000   0.0000   0.0000   0.2836
  13.000   1.5579   0.04915   0.04153  -0.0817  0.0860  1.0000  -4.8079   0.0000   0.0000   0.0000   0.2829
  13.100   1.5609   0.04991   0.04238  -0.0812  0.0844  1.0000  -4.8517   0.0000   0.0000   0.0000   0.2822
  13.200   1.5637   0.05067   0.04320  -0.0806  0.0828  1.0000  -4.8952   0.0000   0.0000   0.0000   0.2816
  13.300   1.5660   0.05145   0.04402  -0.0801  0.0813  1.0000  -4.9385   0.0000   0.0000   0.0000   0.2810
  13.400   1.5682   0.05226   0.04485  -0.0795  0.0798  1.0000  -4.9817   0.0000   0.0000   0.0000   0.2804
  13.500   1.5704   0.05309   0.04570  -0.0790  0.0783  1.0000  -5.0257   0.0000   0.0000   0.0000   0.2798
  13.600   1.5739   0.05399   0.04659  -0.0787  0.0766  1.0000  -5.0733   0.0000   0.0000   0.0000   0.2792
  13.700   1.5870   0.05559   0.04818  -0.0789  0.0731  1.0000  -5.1417   0.0000   0.0000   0.0000   0.2788
  13.800   1.5868   0.05642   0.04911  -0.0782  0.0725  1.0000  -5.1788   0.0000   0.0000   0.0000   0.2782
  13.900   1.5869   0.05730   0.05009  -0.0776  0.0717  1.0000  -5.2164   0.0000   0.0000   0.0000   0.2776
  14.000   1.5874   0.05823   0.05112  -0.0770  0.0708  1.0000  -5.2547   0.0000   0.0000   0.0000   0.2770
  14.100   1.5881   0.05920   0.05219  -0.0765  0.0698  1.0000  -5.2928   0.0000   0.0000   0.0000   0.2765
  14.200   1.5886   0.06025   0.05334  -0.0760  0.0688  1.0000  -5.3284   0.0000   0.0000   0.0000   0.2759
  14.300   1.5891   0.06133   0.05450  -0.0755  0.0678  1.0000  -5.3642   0.0000   0.0000   0.0000   0.2754
  14.400   1.5897   0.06241   0.05567  -0.0750  0.0668  1.0000  -5.4003   0.0000   0.0000   0.0000   0.2749
  14.500   1.5902   0.06349   0.05683  -0.0746  0.0658  1.0000  -5.4370   0.0000   0.0000   0.0000   0.2744
  14.600   1.5906   0.06458   0.05798  -0.0742  0.0648  1.0000  -5.4739   0.0000   0.0000   0.0000   0.2739
  14.700   1.5909   0.06566   0.05912  -0.0738  0.0638  1.0000  -5.5114   0.0000   0.0000   0.0000   0.2735
  14.800   1.5913   0.06673   0.06023  -0.0735  0.0628  1.0000  -5.5651   0.0000   0.0000   0.0000   0.2730
  14.900   1.5921   0.06778   0.06131  -0.0732  0.0619  1.0000  -5.6290   0.0000   0.0000   0.0000   0.2726
  15.000   1.5931   0.06883   0.06239  -0.0729  0.0609  1.0000  -5.6950   0.0000   0.0000   0.0000   0.2722


