xflr5 v6.61

 Calculated polar for: SG6043

 1 1 Reynolds number fixed          Mach number fixed         

 xtrf =   1.000 (top)        1.000 (bottom)
 Mach =   0.000     Re =     0.275 e 6     Ncrit =   9.000

  alpha     CL        CD       CDp       Cm    Top Xtr Bot Xtr   Cpmin    Chinge    XCp    
 ------- -------- --------- --------- -------- ------- ------- -------- --------- ---------
 -10.000  -0.2629   0.12452   0.12145  -0.0451  0.9904  0.0219  -1.3962   0.0000   0.0000   0.0000   0.0636
  -9.900  -0.2587   0.12310   0.12003  -0.0461  0.9890  0.0223  -1.4023   0.0000   0.0000   0.0000   0.0568
  -9.800  -0.2541   0.12167   0.11860  -0.0472  0.9876  0.0226  -1.4112   0.0000   0.0000   0.0000   0.0490
  -9.700  -0.2494   0.12022   0.11715  -0.0485  0.9862  0.0230  -1.4247   0.0000   0.0000   0.0000   0.0401
  -9.600  -0.2446   0.11878   0.11572  -0.0500  0.9848  0.0235  -1.4478   0.0000   0.0000   0.0000   0.0300
  -9.500  -0.2402   0.11742   0.11435  -0.0520  0.9833  0.0240  -1.4933   0.0000   0.0000   0.0000   0.0178
  -9.400  -0.2368   0.11621   0.11315  -0.0545  0.9817  0.0243  -1.5600   0.0000   0.0000   0.0000   0.0038
  -9.300  -0.2337   0.11499   0.11192  -0.0573  0.9802  0.0245  -1.6233   0.0000   0.0000   0.0000  -0.0110
  -9.200  -0.2290   0.11358   0.11051  -0.0597  0.9790  0.0246  -1.6732   0.0000   0.0000   0.0000  -0.0270
  -9.100  -0.2236   0.11209   0.10903  -0.0620  0.9780  0.0247  -1.7133   0.0000   0.0000   0.0000  -0.0437
  -9.000  -0.2178   0.11055   0.10749  -0.0642  0.9770  0.0247  -1.7477   0.0000   0.0000   0.0000  -0.0615
  -8.900  -0.2113   0.10898   0.10592  -0.0663  0.9763  0.0248  -1.7743   0.0000   0.0000   0.0000  -0.0808
  -8.800  -0.2047   0.10737   0.10430  -0.0684  0.9755  0.0248  -1.8018   0.0000   0.0000   0.0000  -0.1021
  -8.700  -0.2017   0.10414   0.10110  -0.0684  0.9753  0.0252  -1.8005   0.0000   0.0000   0.0000  -0.1071
  -8.600  -0.1930   0.10262   0.09957  -0.0681  0.9750  0.0255  -1.7194   0.0000   0.0000   0.0000  -0.1217
  -8.500  -0.1842   0.10127   0.09820  -0.0686  0.9747  0.0259  -1.6587   0.0000   0.0000   0.0000  -0.1418
  -8.400  -0.1834   0.10039   0.09733  -0.0678  0.9716  0.0261  -1.6357   0.0000   0.0000   0.0000  -0.1390
  -8.300  -0.1806   0.09939   0.09633  -0.0678  0.9689  0.0264  -1.6134   0.0000   0.0000   0.0000  -0.1443
  -8.200  -0.1760   0.09826   0.09521  -0.0683  0.9669  0.0268  -1.5934   0.0000   0.0000   0.0000  -0.1576
  -8.100  -0.1709   0.09708   0.09403  -0.0692  0.9652  0.0272  -1.5786   0.0000   0.0000   0.0000  -0.1746
  -8.000  -0.1655   0.09585   0.09280  -0.0702  0.9637  0.0277  -1.5690   0.0000   0.0000   0.0000  -0.1947
  -7.900  -0.1598   0.09456   0.09152  -0.0715  0.9623  0.0282  -1.5643   0.0000   0.0000   0.0000  -0.2182
  -7.800  -0.1538   0.09322   0.09018  -0.0730  0.9610  0.0289  -1.5647   0.0000   0.0000   0.0000  -0.2456
  -7.700  -0.1476   0.09182   0.08878  -0.0747  0.9599  0.0296  -1.5710   0.0000   0.0000   0.0000  -0.2776
  -7.600  -0.1412   0.09036   0.08732  -0.0767  0.9588  0.0304  -1.5868   0.0000   0.0000   0.0000  -0.3159
  -7.500  -0.1347   0.08887   0.08583  -0.0796  0.9575  0.0314  -1.6292   0.0000   0.0000   0.0000  -0.3641
  -7.400  -0.1282   0.08745   0.08440  -0.0847  0.9559  0.0323  -1.7312   0.0000   0.0000   0.0000  -0.4351
  -7.300  -0.1349   0.08709   0.08407  -0.0834  0.9504  0.0324  -1.7596   0.0000   0.0000   0.0000  -0.3906
  -7.200  -0.1370   0.08634   0.08333  -0.0839  0.9457  0.0326  -1.7975   0.0000   0.0000   0.0000  -0.3843
  -7.100  -0.1344   0.08520   0.08219  -0.0857  0.9426  0.0327  -1.8313   0.0000   0.0000   0.0000  -0.4099
  -7.000  -0.1274   0.08366   0.08065  -0.0887  0.9404  0.0329  -1.8587   0.0000   0.0000   0.0000  -0.4686
  -6.900  -0.1177   0.08173   0.07872  -0.0925  0.9386  0.0329  -1.8872   0.0000   0.0000   0.0000  -0.5600
  -6.800  -0.1176   0.07775   0.07476  -0.0946  0.9375  0.0335  -1.9562   0.0000   0.0000   0.0000  -0.5786
  -6.700  -0.1127   0.07673   0.07374  -0.0927  0.9372  0.0341  -1.8583   0.0000   0.0000   0.0000  -0.5982
  -6.600  -0.1047   0.07592   0.07293  -0.0922  0.9368  0.0346  -1.7693   0.0000   0.0000   0.0000  -0.6571
  -6.500  -0.0956   0.07488   0.07188  -0.0928  0.9363  0.0352  -1.7045   0.0000   0.0000   0.0000  -0.7489
  -6.400  -0.0859   0.07357   0.07057  -0.0943  0.9356  0.0357  -1.6605   0.0000   0.0000   0.0000  -0.8794
  -6.300  -0.0756   0.07207   0.06906  -0.0965  0.9349  0.0363  -1.6304   0.0000   0.0000   0.0000  -1.0625
  -6.200  -0.0872   0.07199   0.06901  -0.0935  0.9277  0.0362  -1.6468   0.0000   0.0000   0.0000  -0.8524
  -6.100  -0.0844   0.07091   0.06793  -0.0941  0.9243  0.0366  -1.6371   0.0000   0.0000   0.0000  -0.8950
  -6.000  -0.0784   0.06959   0.06661  -0.0956  0.9219  0.0370  -1.6248   0.0000   0.0000   0.0000  -1.0006
  -5.900  -0.0707   0.06811   0.06513  -0.0977  0.9201  0.0376  -1.6131   0.0000   0.0000   0.0000  -1.1666
  -5.800  -0.0616   0.06649   0.06349  -0.1002  0.9185  0.0382  -1.6038   0.0000   0.0000   0.0000  -1.4170
  -5.700  -0.0511   0.06471   0.06170  -0.1033  0.9172  0.0389  -1.5980   0.0000   0.0000   0.0000  -1.8193
  -5.600  -0.0389   0.06274   0.05971  -0.1070  0.9160  0.0398  -1.5980   0.0000   0.0000   0.0000  -2.5580
  -5.500  -0.0240   0.06041   0.05735  -0.1120  0.9149  0.0410  -1.6138   0.0000   0.0000   0.0000  -4.5094
  -5.400   0.0077   0.05683   0.05362  -0.1240  0.9137  0.0435  -1.7304   0.0000   0.0000   0.0000  16.5868
  -5.300   0.0269   0.05471   0.05138  -0.1289  0.9130  0.0438  -1.7528   0.0000   0.0000   0.0000   5.1169
  -5.200   0.0434   0.05261   0.04915  -0.1328  0.9124  0.0440  -1.7622   0.0000   0.0000   0.0000   3.3614
  -5.100   0.0591   0.05056   0.04699  -0.1361  0.9118  0.0440  -1.7652   0.0000   0.0000   0.0000   2.5897
  -5.000   0.0405   0.05116   0.04762  -0.1305  0.9026  0.0440  -1.7787   0.0000   0.0000   0.0000   3.5211
  -4.900   0.0387   0.04577   0.04222  -0.1332  0.8996  0.0454  -1.8719   0.0000   0.0000   0.0000   3.7470
  -4.800   0.0470   0.04467   0.04113  -0.1336  0.8982  0.0458  -1.8109   0.0000   0.0000   0.0000   3.1331
  -4.700   0.0570   0.04364   0.04011  -0.1343  0.8970  0.0464  -1.7487   0.0000   0.0000   0.0000   2.6413
  -4.600   0.0683   0.04260   0.03905  -0.1353  0.8960  0.0470  -1.6883   0.0000   0.0000   0.0000   2.2607
  -4.500   0.0807   0.04152   0.03794  -0.1366  0.8951  0.0477  -1.6310   0.0000   0.0000   0.0000   1.9669
  -4.400   0.0941   0.04038   0.03677  -0.1381  0.8943  0.0485  -1.5981   0.0000   0.0000   0.0000   1.7375
  -4.300   0.1086   0.03913   0.03546  -0.1398  0.8936  0.0496  -1.5729   0.0000   0.0000   0.0000   1.5542
  -4.200   0.1243   0.03776   0.03402  -0.1419  0.8930  0.0511  -1.5569   0.0000   0.0000   0.0000   1.4055
  -4.100   0.1414   0.03629   0.03244  -0.1441  0.8925  0.0530  -1.5535   0.0000   0.0000   0.0000   1.2817
  -4.000   0.1621   0.03516   0.03111  -0.1465  0.8920  0.0566  -1.5732   0.0000   0.0000   0.0000   1.1649
  -3.900   0.1841   0.03610   0.03181  -0.1477  0.8916  0.0588  -1.5542   0.0000   0.0000   0.0000   1.0619
  -3.800   0.2012   0.03487   0.03043  -0.1496  0.8911  0.0589  -1.5578   0.0000   0.0000   0.0000   1.0020
  -3.700   0.2261   0.02230   0.01667  -0.1562  0.8913  0.0340  -2.2513   0.0000   0.0000   0.0000   0.9495
  -3.600   0.2427   0.02147   0.01568  -0.1574  0.8909  0.0338  -2.2240   0.0000   0.0000   0.0000   0.9064
  -3.500   0.2585   0.02059   0.01475  -0.1588  0.8905  0.0351  -2.1542   0.0000   0.0000   0.0000   0.8715
  -3.400   0.2739   0.02055   0.01480  -0.1599  0.8901  0.0369  -2.0302   0.0000   0.0000   0.0000   0.8401
  -3.300   0.2907   0.02014   0.01434  -0.1611  0.8897  0.0381  -1.9529   0.0000   0.0000   0.0000   0.8102
  -3.200   0.3085   0.01907   0.01305  -0.1624  0.8894  0.0374  -1.9378   0.0000   0.0000   0.0000   0.7820
  -3.100   0.3263   0.01792   0.01165  -0.1636  0.8891  0.0360  -1.9396   0.0000   0.0000   0.0000   0.7566
  -3.000   0.3433   0.01717   0.01076  -0.1647  0.8887  0.0354  -1.9043   0.0000   0.0000   0.0000   0.7346
  -2.900   0.3600   0.01659   0.01008  -0.1657  0.8882  0.0352  -1.8537   0.0000   0.0000   0.0000   0.7148
  -2.800   0.3766   0.01607   0.00949  -0.1667  0.8877  0.0352  -1.7955   0.0000   0.0000   0.0000   0.6969
  -2.700   0.3931   0.01562   0.00898  -0.1678  0.8871  0.0354  -1.7329   0.0000   0.0000   0.0000   0.6807
  -2.600   0.3825   0.01586   0.00923  -0.1634  0.8801  0.0354  -1.7337   0.0000   0.0000   0.0000   0.6810
  -2.500   0.3923   0.01559   0.00893  -0.1631  0.8777  0.0357  -1.6842   0.0000   0.0000   0.0000   0.6693
  -2.400   0.4048   0.01528   0.00861  -0.1633  0.8761  0.0362  -1.6262   0.0000   0.0000   0.0000   0.6567
  -2.300   0.4183   0.01498   0.00829  -0.1637  0.8746  0.0368  -1.5640   0.0000   0.0000   0.0000   0.6444
  -2.200   0.4324   0.01469   0.00799  -0.1643  0.8733  0.0377  -1.4999   0.0000   0.0000   0.0000   0.6326
  -2.100   0.4471   0.01441   0.00769  -0.1649  0.8721  0.0390  -1.4352   0.0000   0.0000   0.0000   0.6214
  -2.000   0.4622   0.01413   0.00739  -0.1656  0.8710  0.0407  -1.3755   0.0000   0.0000   0.0000   0.6106
  -1.900   0.4778   0.01389   0.00712  -0.1664  0.8700  0.0428  -1.3422   0.0000   0.0000   0.0000   0.6004
  -1.800   0.4939   0.01348   0.00670  -0.1674  0.8691  0.0468  -1.3233   0.0000   0.0000   0.0000   0.5908
  -1.700   0.5100   0.01320   0.00645  -0.1684  0.8681  0.0545  -1.2908   0.0000   0.0000   0.0000   0.5819
  -1.600   0.5264   0.01285   0.00615  -0.1694  0.8672  0.0763  -1.2726   0.0000   0.0000   0.0000   0.5734
  -1.500   0.5424   0.01262   0.00598  -0.1704  0.8663  0.0984  -1.2196   0.0000   0.0000   0.0000   0.5656
  -1.400   0.5583   0.01241   0.00584  -0.1714  0.8653  0.1184  -1.1583   0.0000   0.0000   0.0000   0.5582
  -1.300   0.5741   0.01222   0.00571  -0.1724  0.8643  0.1423  -1.0943   0.0000   0.0000   0.0000   0.5513
  -1.200   0.5901   0.01200   0.00561  -0.1735  0.8632  0.1801  -1.0299   0.0000   0.0000   0.0000   0.5448
  -1.100   0.6060   0.01171   0.00554  -0.1747  0.8620  0.2509  -0.9651   0.0000   0.0000   0.0000   0.5389
  -1.000   0.6095   0.01163   0.00566  -0.1733  0.8585  0.3134  -0.9303   0.0000   0.0000   0.0000   0.5348
  -0.900   0.6170   0.01138   0.00575  -0.1728  0.8554  0.4259  -0.8861   0.0000   0.0000   0.0000   0.5304
  -0.800   0.6267   0.01113   0.00585  -0.1725  0.8529  0.5469  -0.8348   0.0000   0.0000   0.0000   0.5256
  -0.700   0.6375   0.01097   0.00588  -0.1723  0.8506  0.6200  -0.7812   0.0000   0.0000   0.0000   0.5205
  -0.600   0.6487   0.01083   0.00588  -0.1722  0.8486  0.6732  -0.7272   0.0000   0.0000   0.0000   0.5155
  -0.500   0.6603   0.01069   0.00584  -0.1721  0.8466  0.7146  -0.7354   0.0000   0.0000   0.0000   0.5105
  -0.400   0.6725   0.01056   0.00578  -0.1721  0.8448  0.7496  -0.7440   0.0000   0.0000   0.0000   0.5056
  -0.300   0.6842   0.01042   0.00571  -0.1719  0.8430  0.7833  -0.7524   0.0000   0.0000   0.0000   0.5009
  -0.200   0.6949   0.01028   0.00563  -0.1715  0.8413  0.8203  -0.7608   0.0000   0.0000   0.0000   0.4963
  -0.100   0.7043   0.01014   0.00555  -0.1708  0.8395  0.8607  -0.7685   0.0000   0.0000   0.0000   0.4918
   0.000   0.7140   0.00999   0.00545  -0.1700  0.8377  0.9157  -0.7768   0.0000   0.0000   0.0000   0.4873
   0.100   0.7292   0.00992   0.00537  -0.1708  0.8355  1.0000  -0.7880   0.0000   0.0000   0.0000   0.4833
   0.200   0.7358   0.00999   0.00541  -0.1699  0.8320  1.0000  -0.7943   0.0000   0.0000   0.0000   0.4798
   0.300   0.7452   0.01002   0.00542  -0.1695  0.8289  1.0000  -0.8024   0.0000   0.0000   0.0000   0.4763
   0.400   0.7563   0.01003   0.00539  -0.1694  0.8261  1.0000  -0.8120   0.0000   0.0000   0.0000   0.4727
   0.500   0.7686   0.01001   0.00534  -0.1696  0.8234  1.0000  -0.8224   0.0000   0.0000   0.0000   0.4693
   0.600   0.7818   0.00999   0.00527  -0.1700  0.8210  1.0000  -0.8334   0.0000   0.0000   0.0000   0.4659
   0.700   0.7956   0.00996   0.00520  -0.1704  0.8187  1.0000  -0.8453   0.0000   0.0000   0.0000   0.4626
   0.800   0.8098   0.00993   0.00512  -0.1710  0.8166  1.0000  -0.8583   0.0000   0.0000   0.0000   0.4593
   0.900   0.8242   0.00990   0.00505  -0.1716  0.8144  1.0000  -0.8718   0.0000   0.0000   0.0000   0.4562
   1.000   0.8394   0.00990   0.00500  -0.1723  0.8122  1.0000  -0.8859   0.0000   0.0000   0.0000   0.4533
   1.100   0.8489   0.00995   0.00503  -0.1719  0.8091  1.0000  -0.8969   0.0000   0.0000   0.0000   0.4504
   1.200   0.8566   0.00999   0.00507  -0.1712  0.8055  1.0000  -0.9071   0.0000   0.0000   0.0000   0.4476
   1.300   0.8663   0.01001   0.00507  -0.1709  0.8020  1.0000  -0.9186   0.0000   0.0000   0.0000   0.4448
   1.400   0.8774   0.01001   0.00506  -0.1708  0.7987  1.0000  -0.9312   0.0000   0.0000   0.0000   0.4421
   1.500   0.8896   0.01000   0.00501  -0.1709  0.7957  1.0000  -0.9456   0.0000   0.0000   0.0000   0.4395
   1.600   0.9024   0.00998   0.00496  -0.1712  0.7929  1.0000  -0.9607   0.0000   0.0000   0.0000   0.4369
   1.700   0.9157   0.00996   0.00491  -0.1715  0.7902  1.0000  -0.9772   0.0000   0.0000   0.0000   0.4344
   1.800   0.9301   0.00996   0.00486  -0.1721  0.7875  1.0000  -0.9952   0.0000   0.0000   0.0000   0.4320
   1.900   0.9417   0.00999   0.00487  -0.1721  0.7844  1.0000  -1.0110   0.0000   0.0000   0.0000   0.4297
   2.000   0.9489   0.01003   0.00492  -0.1713  0.7803  1.0000  -1.0235   0.0000   0.0000   0.0000   0.4273
   2.100   0.9581   0.01005   0.00493  -0.1708  0.7763  1.0000  -1.0391   0.0000   0.0000   0.0000   0.4249
   2.200   0.9688   0.01005   0.00492  -0.1706  0.7724  1.0000  -1.0561   0.0000   0.0000   0.0000   0.4227
   2.300   0.9803   0.01004   0.00488  -0.1706  0.7688  1.0000  -1.0739   0.0000   0.0000   0.0000   0.4205
   2.400   0.9928   0.01003   0.00483  -0.1708  0.7654  1.0000  -1.0949   0.0000   0.0000   0.0000   0.4183
   2.500   1.0067   0.01003   0.00479  -0.1712  0.7621  1.0000  -1.1174   0.0000   0.0000   0.0000   0.4163
   2.600   1.0174   0.01006   0.00481  -0.1711  0.7584  1.0000  -1.1387   0.0000   0.0000   0.0000   0.4142
   2.700   1.0250   0.01010   0.00488  -0.1703  0.7540  1.0000  -1.1572   0.0000   0.0000   0.0000   0.4121
   2.800   1.0341   0.01012   0.00490  -0.1698  0.7495  1.0000  -1.1776   0.0000   0.0000   0.0000   0.4101
   2.900   1.0443   0.01013   0.00490  -0.1696  0.7451  1.0000  -1.1993   0.0000   0.0000   0.0000   0.4081
   3.000   1.0558   0.01012   0.00487  -0.1695  0.7411  1.0000  -1.2225   0.0000   0.0000   0.0000   0.4061
   3.100   1.0688   0.01013   0.00482  -0.1698  0.7372  1.0000  -1.2475   0.0000   0.0000   0.0000   0.4043
   3.200   1.0794   0.01016   0.00484  -0.1696  0.7328  1.0000  -1.2698   0.0000   0.0000   0.0000   0.4025
   3.300   1.0867   0.01020   0.00490  -0.1688  0.7275  1.0000  -1.2887   0.0000   0.0000   0.0000   0.4005
   3.400   1.0956   0.01022   0.00492  -0.1683  0.7222  1.0000  -1.3094   0.0000   0.0000   0.0000   0.3987
   3.500   1.1060   0.01023   0.00491  -0.1680  0.7172  1.0000  -1.3319   0.0000   0.0000   0.0000   0.3969
   3.600   1.1180   0.01025   0.00488  -0.1681  0.7124  1.0000  -1.3563   0.0000   0.0000   0.0000   0.3952
   3.700   1.1283   0.01029   0.00489  -0.1679  0.7074  1.0000  -1.3818   0.0000   0.0000   0.0000   0.3935
   3.800   1.1358   0.01033   0.00496  -0.1671  0.7016  1.0000  -1.4039   0.0000   0.0000   0.0000   0.3917
   3.900   1.1449   0.01036   0.00498  -0.1666  0.6956  1.0000  -1.4282   0.0000   0.0000   0.0000   0.3899
   4.000   1.1553   0.01039   0.00497  -0.1663  0.6897  1.0000  -1.4543   0.0000   0.0000   0.0000   0.3883
   4.100   1.1667   0.01043   0.00496  -0.1663  0.6840  1.0000  -1.4817   0.0000   0.0000   0.0000   0.3867
   4.200   1.1739   0.01048   0.00507  -0.1654  0.6774  1.0000  -1.5038   0.0000   0.0000   0.0000   0.3850
   4.300   1.1825   0.01053   0.00511  -0.1648  0.6704  1.0000  -1.5279   0.0000   0.0000   0.0000   0.3834
   4.400   1.1923   0.01058   0.00512  -0.1645  0.6635  1.0000  -1.5538   0.0000   0.0000   0.0000   0.3818
   4.500   1.2017   0.01065   0.00515  -0.1641  0.6567  1.0000  -1.5861   0.0000   0.0000   0.0000   0.3802
   4.600   1.2092   0.01071   0.00522  -0.1633  0.6490  1.0000  -1.6156   0.0000   0.0000   0.0000   0.3786
   4.700   1.2179   0.01078   0.00526  -0.1627  0.6412  1.0000  -1.6470   0.0000   0.0000   0.0000   0.3770
   4.800   1.2276   0.01087   0.00528  -0.1624  0.6338  1.0000  -1.6805   0.0000   0.0000   0.0000   0.3755
   4.900   1.2349   0.01094   0.00537  -0.1616  0.6259  1.0000  -1.7099   0.0000   0.0000   0.0000   0.3740
   5.000   1.2430   0.01103   0.00543  -0.1609  0.6176  1.0000  -1.7409   0.0000   0.0000   0.0000   0.3725
   5.100   1.2518   0.01114   0.00548  -0.1604  0.6098  1.0000  -1.7733   0.0000   0.0000   0.0000   0.3710
   5.200   1.2597   0.01123   0.00558  -0.1597  0.6020  1.0000  -1.8041   0.0000   0.0000   0.0000   0.3695
   5.300   1.2674   0.01133   0.00566  -0.1590  0.5935  1.0000  -1.8350   0.0000   0.0000   0.0000   0.3680
   5.400   1.2754   0.01146   0.00573  -0.1583  0.5849  1.0000  -1.8664   0.0000   0.0000   0.0000   0.3666
   5.500   1.2828   0.01157   0.00583  -0.1575  0.5761  1.0000  -1.8970   0.0000   0.0000   0.0000   0.3651
   5.600   1.2898   0.01169   0.00592  -0.1566  0.5661  1.0000  -1.9271   0.0000   0.0000   0.0000   0.3637
   5.700   1.2967   0.01185   0.00604  -0.1558  0.5564  1.0000  -1.9572   0.0000   0.0000   0.0000   0.3622
   5.800   1.3033   0.01197   0.00616  -0.1548  0.5458  1.0000  -1.9889   0.0000   0.0000   0.0000   0.3608
   5.900   1.3093   0.01215   0.00626  -0.1538  0.5348  1.0000  -2.0211   0.0000   0.0000   0.0000   0.3593
   6.000   1.3156   0.01230   0.00638  -0.1528  0.5241  1.0000  -2.0541   0.0000   0.0000   0.0000   0.3578
   6.100   1.3212   0.01247   0.00651  -0.1517  0.5126  1.0000  -2.0859   0.0000   0.0000   0.0000   0.3564
   6.200   1.3266   0.01265   0.00664  -0.1506  0.5022  1.0000  -2.1174   0.0000   0.0000   0.0000   0.3549
   6.300   1.3318   0.01281   0.00677  -0.1494  0.4911  1.0000  -2.1487   0.0000   0.0000   0.0000   0.3534
   6.400   1.3358   0.01303   0.00691  -0.1480  0.4807  1.0000  -2.1779   0.0000   0.0000   0.0000   0.3519
   6.500   1.3412   0.01319   0.00706  -0.1469  0.4693  1.0000  -2.2095   0.0000   0.0000   0.0000   0.3505
   6.600   1.3447   0.01343   0.00722  -0.1454  0.4577  1.0000  -2.2380   0.0000   0.0000   0.0000   0.3490
   6.700   1.3494   0.01363   0.00738  -0.1442  0.4458  1.0000  -2.2686   0.0000   0.0000   0.0000   0.3476
   6.800   1.3524   0.01389   0.00757  -0.1426  0.4332  1.0000  -2.2961   0.0000   0.0000   0.0000   0.3460
   6.900   1.3565   0.01412   0.00775  -0.1413  0.4205  1.0000  -2.3258   0.0000   0.0000   0.0000   0.3446
   7.000   1.3592   0.01440   0.00796  -0.1397  0.4073  1.0000  -2.3529   0.0000   0.0000   0.0000   0.3431
   7.100   1.3633   0.01465   0.00816  -0.1385  0.3942  1.0000  -2.3828   0.0000   0.0000   0.0000   0.3417
   7.200   1.3658   0.01497   0.00839  -0.1369  0.3811  1.0000  -2.4097   0.0000   0.0000   0.0000   0.3403
   7.300   1.3702   0.01523   0.00860  -0.1357  0.3684  1.0000  -2.4403   0.0000   0.0000   0.0000   0.3390
   7.400   1.3727   0.01556   0.00888  -0.1342  0.3560  1.0000  -2.4683   0.0000   0.0000   0.0000   0.3375
   7.500   1.3770   0.01583   0.00912  -0.1331  0.3440  1.0000  -2.5025   0.0000   0.0000   0.0000   0.3362
   7.600   1.3798   0.01617   0.00938  -0.1316  0.3320  1.0000  -2.5334   0.0000   0.0000   0.0000   0.3349
   7.700   1.3841   0.01646   0.00963  -0.1305  0.3206  1.0000  -2.5678   0.0000   0.0000   0.0000   0.3336
   7.800   1.3876   0.01679   0.00991  -0.1292  0.3091  1.0000  -2.6005   0.0000   0.0000   0.0000   0.3323
   7.900   1.3916   0.01711   0.01018  -0.1281  0.2987  1.0000  -2.6343   0.0000   0.0000   0.0000   0.3311
   8.000   1.3959   0.01742   0.01045  -0.1270  0.2877  1.0000  -2.6692   0.0000   0.0000   0.0000   0.3299
   8.100   1.3985   0.01781   0.01077  -0.1256  0.2778  1.0000  -2.6998   0.0000   0.0000   0.0000   0.3286
   8.200   1.4037   0.01809   0.01104  -0.1247  0.2676  1.0000  -2.7370   0.0000   0.0000   0.0000   0.3274
   8.300   1.4066   0.01848   0.01137  -0.1235  0.2576  1.0000  -2.7727   0.0000   0.0000   0.0000   0.3262
   8.400   1.4109   0.01882   0.01167  -0.1224  0.2484  1.0000  -2.8116   0.0000   0.0000   0.0000   0.3250
   8.500   1.4151   0.01916   0.01198  -0.1214  0.2386  1.0000  -2.8509   0.0000   0.0000   0.0000   0.3239
   8.600   1.4175   0.01961   0.01236  -0.1201  0.2294  1.0000  -2.8854   0.0000   0.0000   0.0000   0.3227
   8.700   1.4229   0.01991   0.01265  -0.1192  0.2207  1.0000  -2.9308   0.0000   0.0000   0.0000   0.3216
   8.800   1.4263   0.02031   0.01301  -0.1181  0.2119  1.0000  -2.9725   0.0000   0.0000   0.0000   0.3205
   8.900   1.4287   0.02077   0.01341  -0.1169  0.2038  1.0000  -3.0115   0.0000   0.0000   0.0000   0.3193
   9.000   1.4342   0.02108   0.01372  -0.1161  0.1961  1.0000  -3.0596   0.0000   0.0000   0.0000   0.3183
   9.100   1.4377   0.02150   0.01412  -0.1151  0.1884  1.0000  -3.1023   0.0000   0.0000   0.0000   0.3172
   9.200   1.4399   0.02200   0.01456  -0.1139  0.1808  1.0000  -3.1450   0.0000   0.0000   0.0000   0.3161
   9.300   1.4458   0.02230   0.01488  -0.1132  0.1748  1.0000  -3.2002   0.0000   0.0000   0.0000   0.3151
   9.400   1.4500   0.02269   0.01526  -0.1122  0.1685  1.0000  -3.2500   0.0000   0.0000   0.0000   0.3141
   9.500   1.4527   0.02318   0.01570  -0.1111  0.1625  1.0000  -3.2950   0.0000   0.0000   0.0000   0.3131
   9.600   1.4553   0.02369   0.01618  -0.1100  0.1566  1.0000  -3.3394   0.0000   0.0000   0.0000   0.3120
   9.700   1.4613   0.02399   0.01651  -0.1094  0.1522  1.0000  -3.3959   0.0000   0.0000   0.0000   0.3111
   9.800   1.4659   0.02438   0.01691  -0.1086  0.1473  1.0000  -3.4481   0.0000   0.0000   0.0000   0.3101
   9.900   1.4693   0.02486   0.01736  -0.1076  0.1425  1.0000  -3.4960   0.0000   0.0000   0.0000   0.3091
  10.000   1.4713   0.02543   0.01789  -0.1065  0.1377  1.0000  -3.5390   0.0000   0.0000   0.0000   0.3081
  10.100   1.4744   0.02595   0.01840  -0.1055  0.1335  1.0000  -3.5854   0.0000   0.0000   0.0000   0.3072
  10.200   1.4803   0.02626   0.01876  -0.1049  0.1302  1.0000  -3.6430   0.0000   0.0000   0.0000   0.3063
  10.300   1.4851   0.02667   0.01919  -0.1042  0.1264  1.0000  -3.6965   0.0000   0.0000   0.0000   0.3054
  10.400   1.4888   0.02714   0.01965  -0.1034  0.1226  1.0000  -3.7468   0.0000   0.0000   0.0000   0.3045
  10.500   1.4915   0.02770   0.02018  -0.1024  0.1188  1.0000  -3.7933   0.0000   0.0000   0.0000   0.3036
  10.600   1.4925   0.02840   0.02085  -0.1013  0.1146  1.0000  -3.8324   0.0000   0.0000   0.0000   0.3026
  10.700   1.4958   0.02893   0.02140  -0.1004  0.1116  1.0000  -3.8805   0.0000   0.0000   0.0000   0.3017
  10.800   1.5016   0.02928   0.02180  -0.0999  0.1092  1.0000  -3.9389   0.0000   0.0000   0.0000   0.3009
  10.900   1.5066   0.02969   0.02227  -0.0992  0.1065  1.0000  -3.9945   0.0000   0.0000   0.0000   0.3001
  11.000   1.5107   0.03017   0.02277  -0.0985  0.1037  1.0000  -4.0470   0.0000   0.0000   0.0000   0.2992
  11.100   1.5140   0.03072   0.02331  -0.0977  0.1009  1.0000  -4.0966   0.0000   0.0000   0.0000   0.2984
  11.200   1.5162   0.03136   0.02394  -0.0969  0.0981  1.0000  -4.1418   0.0000   0.0000   0.0000   0.2975
  11.300   1.5168   0.03215   0.02471  -0.0958  0.0950  1.0000  -4.1796   0.0000   0.0000   0.0000   0.2967
  11.400   1.5169   0.03303   0.02559  -0.0948  0.0919  1.0000  -4.2137   0.0000   0.0000   0.0000   0.2958
  11.500   1.5228   0.03338   0.02600  -0.0943  0.0905  1.0000  -4.2740   0.0000   0.0000   0.0000   0.2950
  11.600   1.5280   0.03381   0.02648  -0.0937  0.0887  1.0000  -4.3314   0.0000   0.0000   0.0000   0.2943
  11.700   1.5324   0.03429   0.02700  -0.0931  0.0867  1.0000  -4.3860   0.0000   0.0000   0.0000   0.2935
  11.800   1.5363   0.03482   0.02757  -0.0925  0.0847  1.0000  -4.4387   0.0000   0.0000   0.0000   0.2928
  11.900   1.5396   0.03541   0.02817  -0.0919  0.0827  1.0000  -4.4896   0.0000   0.0000   0.0000   0.2920
  12.000   1.5423   0.03605   0.02882  -0.0912  0.0808  1.0000  -4.5381   0.0000   0.0000   0.0000   0.2913
  12.100   1.5443   0.03678   0.02954  -0.0904  0.0789  1.0000  -4.5832   0.0000   0.0000   0.0000   0.2906
  12.200   1.5452   0.03764   0.03040  -0.0896  0.0768  1.0000  -4.6224   0.0000   0.0000   0.0000   0.2898
  12.300   1.5443   0.03871   0.03148  -0.0887  0.0744  1.0000  -4.6517   0.0000   0.0000   0.0000   0.2890
  12.400   1.5464   0.03952   0.03232  -0.0879  0.0729  1.0000  -4.6940   0.0000   0.0000   0.0000   0.2883
  12.500   1.5511   0.04000   0.03286  -0.0875  0.0720  1.0000  -4.7515   0.0000   0.0000   0.0000   0.2876
  12.600   1.5556   0.04052   0.03344  -0.0870  0.0709  1.0000  -4.8074   0.0000   0.0000   0.0000   0.2870
  12.700   1.5596   0.04109   0.03406  -0.0865  0.0696  1.0000  -4.8618   0.0000   0.0000   0.0000   0.2863
  12.800   1.5634   0.04170   0.03471  -0.0860  0.0682  1.0000  -4.9148   0.0000   0.0000   0.0000   0.2857
  12.900   1.5667   0.04235   0.03542  -0.0855  0.0669  1.0000  -4.9662   0.0000   0.0000   0.0000   0.2850
  13.000   1.5696   0.04303   0.03614  -0.0850  0.0656  1.0000  -5.0164   0.0000   0.0000   0.0000   0.2844
  13.100   1.5722   0.04375   0.03689  -0.0845  0.0643  1.0000  -5.0656   0.0000   0.0000   0.0000   0.2838
  13.200   1.5744   0.04453   0.03768  -0.0840  0.0631  1.0000  -5.1127   0.0000   0.0000   0.0000   0.2832
  13.300   1.5761   0.04537   0.03854  -0.0835  0.0618  1.0000  -5.1572   0.0000   0.0000   0.0000   0.2826
  13.400   1.5769   0.04633   0.03950  -0.0829  0.0605  1.0000  -5.1968   0.0000   0.0000   0.0000   0.2820
  13.500   1.5765   0.04747   0.04065  -0.0822  0.0590  1.0000  -5.2287   0.0000   0.0000   0.0000   0.2814
  13.600   1.5754   0.04881   0.04202  -0.0815  0.0572  1.0000  -5.2516   0.0000   0.0000   0.0000   0.2808
  13.700   1.5781   0.04962   0.04288  -0.0811  0.0564  1.0000  -5.3012   0.0000   0.0000   0.0000   0.2802
  13.800   1.5815   0.05029   0.04361  -0.0807  0.0558  1.0000  -5.3604   0.0000   0.0000   0.0000   0.2797
  13.900   1.5848   0.05100   0.04439  -0.0804  0.0550  1.0000  -5.4183   0.0000   0.0000   0.0000   0.2792
  14.000   1.5877   0.05177   0.04521  -0.0801  0.0542  1.0000  -5.4743   0.0000   0.0000   0.0000   0.2786
  14.100   1.5901   0.05260   0.04609  -0.0797  0.0532  1.0000  -5.5278   0.0000   0.0000   0.0000   0.2781
  14.200   1.5923   0.05346   0.04700  -0.0794  0.0523  1.0000  -5.5803   0.0000   0.0000   0.0000   0.2776
  14.300   1.5943   0.05434   0.04793  -0.0791  0.0513  1.0000  -5.6324   0.0000   0.0000   0.0000   0.2772
  14.400   1.5963   0.05525   0.04887  -0.0787  0.0504  1.0000  -5.6841   0.0000   0.0000   0.0000   0.2767
  14.500   1.5980   0.05619   0.04985  -0.0785  0.0495  1.0000  -5.7350   0.0000   0.0000   0.0000   0.2762
  14.600   1.5992   0.05719   0.05089  -0.0782  0.0487  1.0000  -5.7833   0.0000   0.0000   0.0000   0.2758
  14.700   1.6000   0.05826   0.05199  -0.0779  0.0479  1.0000  -5.8293   0.0000   0.0000   0.0000   0.2754
  14.800   1.6004   0.05939   0.05313  -0.0777  0.0471  1.0000  -5.8728   0.0000   0.0000   0.0000   0.2750
  14.900   1.6004   0.06059   0.05436  -0.0774  0.0462  1.0000  -5.9245   0.0000   0.0000   0.0000   0.2746
  15.000   1.5997   0.06193   0.05572  -0.0771  0.0452  1.0000  -5.9779   0.0000   0.0000   0.0000   0.2742


