xflr5 v6.61

 Calculated polar for: SG6043

 1 1 Reynolds number fixed          Mach number fixed         

 xtrf =   1.000 (top)        1.000 (bottom)
 Mach =   0.000     Re =     0.425 e 6     Ncrit =   9.000

  alpha     CL        CD       CDp       Cm    Top Xtr Bot Xtr   Cpmin    Chinge    XCp    
 ------- -------- --------- --------- -------- ------- ------- -------- --------- ---------
 -10.000  -0.2063   0.11586   0.11328  -0.0610  0.9820  0.0155  -1.4251   0.0000   0.0000   0.0000  -0.0659
  -9.900  -0.2008   0.11441   0.11182  -0.0623  0.9812  0.0157  -1.4273   0.0000   0.0000   0.0000  -0.0811
  -9.800  -0.1951   0.11294   0.11035  -0.0637  0.9804  0.0159  -1.4310   0.0000   0.0000   0.0000  -0.0975
  -9.700  -0.1894   0.11145   0.10886  -0.0651  0.9797  0.0161  -1.4366   0.0000   0.0000   0.0000  -0.1155
  -9.600  -0.1835   0.10994   0.10735  -0.0666  0.9790  0.0164  -1.4445   0.0000   0.0000   0.0000  -0.1351
  -9.500  -0.1775   0.10840   0.10581  -0.0682  0.9783  0.0167  -1.4561   0.0000   0.0000   0.0000  -0.1569
  -9.400  -0.1713   0.10681   0.10422  -0.0699  0.9777  0.0171  -1.4750   0.0000   0.0000   0.0000  -0.1813
  -9.300  -0.1651   0.10515   0.10255  -0.0719  0.9770  0.0175  -1.5156   0.0000   0.0000   0.0000  -0.2098
  -9.200  -0.1596   0.10341   0.10082  -0.0750  0.9763  0.0180  -1.6078   0.0000   0.0000   0.0000  -0.2449
  -9.100  -0.1545   0.10175   0.09915  -0.0780  0.9756  0.0182  -1.6876   0.0000   0.0000   0.0000  -0.2812
  -9.000  -0.1479   0.10004   0.09744  -0.0805  0.9751  0.0183  -1.7387   0.0000   0.0000   0.0000  -0.3212
  -8.900  -0.1409   0.09841   0.09581  -0.0826  0.9746  0.0183  -1.7701   0.0000   0.0000   0.0000  -0.3645
  -8.800  -0.1439   0.09756   0.09497  -0.0816  0.9702  0.0183  -1.7920   0.0000   0.0000   0.0000  -0.3439
  -8.700  -0.1410   0.09620   0.09362  -0.0825  0.9677  0.0184  -1.8205   0.0000   0.0000   0.0000  -0.3619
  -8.600  -0.1367   0.09469   0.09211  -0.0838  0.9658  0.0184  -1.8521   0.0000   0.0000   0.0000  -0.3910
  -8.500  -0.1369   0.09176   0.08920  -0.0851  0.9642  0.0187  -1.9420   0.0000   0.0000   0.0000  -0.3990
  -8.400  -0.1310   0.09046   0.08789  -0.0853  0.9633  0.0189  -1.8818   0.0000   0.0000   0.0000  -0.4296
  -8.300  -0.1234   0.08943   0.08685  -0.0856  0.9625  0.0192  -1.8096   0.0000   0.0000   0.0000  -0.4738
  -8.200  -0.1159   0.08836   0.08578  -0.0863  0.9616  0.0194  -1.7544   0.0000   0.0000   0.0000  -0.5263
  -8.100  -0.1085   0.08722   0.08465  -0.0873  0.9607  0.0197  -1.7133   0.0000   0.0000   0.0000  -0.5879
  -8.000  -0.1012   0.08603   0.08346  -0.0886  0.9599  0.0200  -1.6829   0.0000   0.0000   0.0000  -0.6605
  -7.900  -0.0939   0.08477   0.08219  -0.0901  0.9590  0.0205  -1.6617   0.0000   0.0000   0.0000  -0.7464
  -7.800  -0.0866   0.08344   0.08086  -0.0917  0.9583  0.0210  -1.6492   0.0000   0.0000   0.0000  -0.8488
  -7.700  -0.0793   0.08202   0.07945  -0.0935  0.9575  0.0215  -1.6451   0.0000   0.0000   0.0000  -0.9731
  -7.600  -0.0718   0.08051   0.07794  -0.0956  0.9568  0.0222  -1.6505   0.0000   0.0000   0.0000  -1.1286
  -7.500  -0.0641   0.07886   0.07628  -0.0980  0.9561  0.0230  -1.6733   0.0000   0.0000   0.0000  -1.3310
  -7.400  -0.0637   0.07762   0.07505  -0.0991  0.9527  0.0237  -1.7273   0.0000   0.0000   0.0000  -1.3592
  -7.300  -0.0689   0.07676   0.07420  -0.0990  0.9461  0.0241  -1.7958   0.0000   0.0000   0.0000  -1.2327
  -7.200  -0.0655   0.07520   0.07265  -0.1018  0.9428  0.0245  -1.8779   0.0000   0.0000   0.0000  -1.3527
  -7.100  -0.0595   0.07367   0.07112  -0.1042  0.9408  0.0246  -1.9055   0.0000   0.0000   0.0000  -1.5536
  -7.000  -0.0510   0.07181   0.06926  -0.1071  0.9393  0.0247  -1.9279   0.0000   0.0000   0.0000  -1.9110
  -6.900  -0.0407   0.06972   0.06716  -0.1107  0.9382  0.0247  -1.9487   0.0000   0.0000   0.0000  -2.5423
  -6.800  -0.0300   0.06755   0.06499  -0.1146  0.9372  0.0248  -1.9736   0.0000   0.0000   0.0000  -3.6723
  -6.700  -0.0294   0.06383   0.06128  -0.1172  0.9363  0.0254  -2.0323   0.0000   0.0000   0.0000  -3.8410
  -6.600  -0.0212   0.06307   0.06051  -0.1174  0.9359  0.0258  -1.9377   0.0000   0.0000   0.0000  -5.4206
  -6.500  -0.0119   0.06235   0.05979  -0.1180  0.9355  0.0262  -1.8472   0.0000   0.0000   0.0000  -9.9529
  -6.400  -0.0016   0.06141   0.05885  -0.1193  0.9350  0.0266  -1.7743   0.0000   0.0000   0.0000  -74.9290
  -6.300   0.0095   0.06018   0.05761  -0.1214  0.9345  0.0271  -1.7214   0.0000   0.0000   0.0000  13.2747
  -6.200  -0.0013   0.05994   0.05739  -0.1185  0.9264  0.0271  -1.7401   0.0000   0.0000   0.0000  -89.9909
  -6.100   0.0059   0.05868   0.05613  -0.1201  0.9241  0.0276  -1.7140   0.0000   0.0000   0.0000  21.1621
  -6.000   0.0153   0.05715   0.05458  -0.1226  0.9223  0.0281  -1.6946   0.0000   0.0000   0.0000   8.4623
  -5.900   0.0266   0.05533   0.05275  -0.1259  0.9208  0.0287  -1.6832   0.0000   0.0000   0.0000   5.0786
  -5.800   0.0397   0.05324   0.05064  -0.1299  0.9195  0.0293  -1.6806   0.0000   0.0000   0.0000   3.5882
  -5.700   0.0549   0.05080   0.04814  -0.1349  0.9183  0.0302  -1.6931   0.0000   0.0000   0.0000   2.7525
  -5.600   0.0825   0.04667   0.04387  -0.1448  0.9171  0.0324  -1.8201   0.0000   0.0000   0.0000   2.0347
  -5.500   0.1032   0.04423   0.04130  -0.1500  0.9162  0.0328  -1.8604   0.0000   0.0000   0.0000   1.7274
  -5.400   0.1200   0.04191   0.03885  -0.1539  0.9153  0.0329  -1.8819   0.0000   0.0000   0.0000   1.5534
  -5.300   0.1303   0.03584   0.03258  -0.1601  0.9138  0.0338  -2.0378   0.0000   0.0000   0.0000   1.4981
  -5.200   0.1430   0.03438   0.03110  -0.1620  0.9130  0.0343  -1.9725   0.0000   0.0000   0.0000   1.4000
  -5.100   0.1567   0.03344   0.03015  -0.1636  0.9122  0.0348  -1.8911   0.0000   0.0000   0.0000   1.3090
  -4.900   0.1714   0.03207   0.02873  -0.1636  0.9073  0.0355  -1.8086   0.0000   0.0000   0.0000   1.2182
  -4.800   0.1775   0.03140   0.02803  -0.1633  0.9042  0.0359  -1.7812   0.0000   0.0000   0.0000   1.1828
  -4.700   0.1875   0.03056   0.02714  -0.1639  0.9021  0.0365  -1.7510   0.0000   0.0000   0.0000   1.1359
  -4.600   0.1992   0.02961   0.02613  -0.1648  0.9003  0.0372  -1.7252   0.0000   0.0000   0.0000   1.0883
  -4.500   0.2205   0.01972   0.01496  -0.1696  0.8979  0.0253  -2.5568   0.0000   0.0000   0.0000   1.0305
  -4.400   0.2346   0.01913   0.01425  -0.1703  0.8967  0.0251  -2.5392   0.0000   0.0000   0.0000   0.9862
  -4.300   0.2487   0.01827   0.01325  -0.1711  0.8954  0.0250  -2.5283   0.0000   0.0000   0.0000   0.9475
  -4.200   0.2629   0.01733   0.01215  -0.1720  0.8942  0.0250  -2.5143   0.0000   0.0000   0.0000   0.9131
  -4.100   0.2770   0.01645   0.01113  -0.1728  0.8931  0.0251  -2.4896   0.0000   0.0000   0.0000   0.8821
  -4.000   0.2912   0.01568   0.01023  -0.1736  0.8919  0.0251  -2.4529   0.0000   0.0000   0.0000   0.8539
  -3.900   0.3057   0.01500   0.00944  -0.1744  0.8908  0.0252  -2.4063   0.0000   0.0000   0.0000   0.8277
  -3.800   0.3203   0.01428   0.00862  -0.1753  0.8897  0.0254  -2.3587   0.0000   0.0000   0.0000   0.8040
  -3.700   0.3348   0.01365   0.00792  -0.1762  0.8885  0.0261  -2.2932   0.0000   0.0000   0.0000   0.7826
  -3.600   0.3494   0.01338   0.00764  -0.1770  0.8872  0.0268  -2.2025   0.0000   0.0000   0.0000   0.7626
  -3.500   0.3587   0.01320   0.00744  -0.1767  0.8851  0.0273  -2.1347   0.0000   0.0000   0.0000   0.7481
  -3.400   0.3670   0.01297   0.00718  -0.1761  0.8828  0.0275  -2.0805   0.0000   0.0000   0.0000   0.7350
  -3.300   0.3769   0.01264   0.00679  -0.1757  0.8805  0.0274  -2.0333   0.0000   0.0000   0.0000   0.7214
  -3.200   0.3877   0.01230   0.00639  -0.1756  0.8783  0.0273  -1.9840   0.0000   0.0000   0.0000   0.7077
  -3.100   0.3994   0.01198   0.00603  -0.1757  0.8763  0.0272  -1.9284   0.0000   0.0000   0.0000   0.6944
  -3.000   0.4115   0.01170   0.00571  -0.1758  0.8744  0.0272  -1.8683   0.0000   0.0000   0.0000   0.6816
  -2.900   0.4239   0.01144   0.00541  -0.1761  0.8726  0.0273  -1.8051   0.0000   0.0000   0.0000   0.6693
  -2.800   0.4366   0.01120   0.00514  -0.1764  0.8708  0.0275  -1.7395   0.0000   0.0000   0.0000   0.6576
  -2.700   0.4495   0.01098   0.00490  -0.1767  0.8691  0.0277  -1.6725   0.0000   0.0000   0.0000   0.6465
  -2.600   0.4629   0.01078   0.00467  -0.1771  0.8674  0.0281  -1.6034   0.0000   0.0000   0.0000   0.6359
  -2.500   0.4767   0.01060   0.00446  -0.1777  0.8658  0.0286  -1.5328   0.0000   0.0000   0.0000   0.6257
  -2.400   0.4908   0.01044   0.00427  -0.1782  0.8641  0.0293  -1.4623   0.0000   0.0000   0.0000   0.6159
  -2.300   0.5050   0.01031   0.00410  -0.1789  0.8622  0.0302  -1.4019   0.0000   0.0000   0.0000   0.6068
  -2.200   0.5148   0.01022   0.00400  -0.1786  0.8602  0.0312  -1.3683   0.0000   0.0000   0.0000   0.5992
  -2.100   0.5242   0.01014   0.00391  -0.1781  0.8580  0.0323  -1.3357   0.0000   0.0000   0.0000   0.5920
  -2.000   0.5346   0.00998   0.00373  -0.1779  0.8557  0.0347  -1.3141   0.0000   0.0000   0.0000   0.5849
  -1.900   0.5455   0.00984   0.00362  -0.1779  0.8535  0.0395  -1.2844   0.0000   0.0000   0.0000   0.5779
  -1.800   0.5571   0.00966   0.00349  -0.1779  0.8514  0.0535  -1.2650   0.0000   0.0000   0.0000   0.5711
  -1.700   0.5688   0.00952   0.00341  -0.1781  0.8492  0.0735  -1.2260   0.0000   0.0000   0.0000   0.5645
  -1.600   0.5807   0.00944   0.00335  -0.1782  0.8472  0.0860  -1.1739   0.0000   0.0000   0.0000   0.5582
  -1.500   0.5927   0.00936   0.00330  -0.1784  0.8452  0.0981  -1.1178   0.0000   0.0000   0.0000   0.5521
  -1.400   0.6052   0.00928   0.00324  -0.1787  0.8432  0.1120  -1.0599   0.0000   0.0000   0.0000   0.5462
  -1.300   0.6182   0.00920   0.00319  -0.1791  0.8412  0.1322  -0.9999   0.0000   0.0000   0.0000   0.5405
  -1.200   0.6316   0.00906   0.00317  -0.1796  0.8392  0.1676  -0.9394   0.0000   0.0000   0.0000   0.5351
  -1.100   0.6452   0.00893   0.00315  -0.1803  0.8371  0.2191  -0.8792   0.0000   0.0000   0.0000   0.5300
  -1.000   0.6553   0.00877   0.00317  -0.1802  0.8350  0.2776  -0.8272   0.0000   0.0000   0.0000   0.5254
  -0.800   0.6752   0.00840   0.00321  -0.1800  0.8301  0.4298  -0.7413   0.0000   0.0000   0.0000   0.5167
  -0.700   0.6857   0.00821   0.00327  -0.1799  0.8275  0.5198  -0.7483   0.0000   0.0000   0.0000   0.5124
  -0.600   0.6964   0.00810   0.00331  -0.1798  0.8250  0.5834  -0.7558   0.0000   0.0000   0.0000   0.5081
  -0.500   0.7072   0.00801   0.00333  -0.1797  0.8225  0.6292  -0.7635   0.0000   0.0000   0.0000   0.5038
  -0.400   0.7181   0.00793   0.00334  -0.1795  0.8201  0.6665  -0.7713   0.0000   0.0000   0.0000   0.4996
  -0.300   0.7294   0.00788   0.00333  -0.1795  0.8178  0.6959  -0.7798   0.0000   0.0000   0.0000   0.4955
  -0.200   0.7412   0.00783   0.00333  -0.1795  0.8154  0.7214  -0.7886   0.0000   0.0000   0.0000   0.4915
  -0.100   0.7532   0.00780   0.00333  -0.1796  0.8130  0.7464  -0.7980   0.0000   0.0000   0.0000   0.4877
   0.000   0.7636   0.00778   0.00336  -0.1793  0.8104  0.7727  -0.8067   0.0000   0.0000   0.0000   0.4839
   0.100   0.7712   0.00773   0.00338  -0.1784  0.8079  0.7989  -0.8139   0.0000   0.0000   0.0000   0.4804
   0.200   0.7787   0.00768   0.00340  -0.1775  0.8051  0.8266  -0.8211   0.0000   0.0000   0.0000   0.4768
   0.400   0.7913   0.00753   0.00338  -0.1750  0.7991  0.8935  -0.8354   0.0000   0.0000   0.0000   0.4698
   0.500   0.8012   0.00740   0.00330  -0.1744  0.7962  0.9669  -0.8445   0.0000   0.0000   0.0000   0.4662
   0.600   0.8140   0.00739   0.00325  -0.1748  0.7934  1.0000  -0.8556   0.0000   0.0000   0.0000   0.4631
   0.700   0.8264   0.00741   0.00322  -0.1750  0.7907  1.0000  -0.8673   0.0000   0.0000   0.0000   0.4600
   0.800   0.8393   0.00745   0.00320  -0.1753  0.7879  1.0000  -0.8799   0.0000   0.0000   0.0000   0.4570
   0.900   0.8513   0.00749   0.00321  -0.1755  0.7850  1.0000  -0.8919   0.0000   0.0000   0.0000   0.4541
   1.000   0.8606   0.00751   0.00323  -0.1751  0.7821  1.0000  -0.9026   0.0000   0.0000   0.0000   0.4513
   1.100   0.8705   0.00753   0.00323  -0.1748  0.7789  1.0000  -0.9143   0.0000   0.0000   0.0000   0.4485
   1.200   0.8808   0.00754   0.00324  -0.1746  0.7756  1.0000  -0.9263   0.0000   0.0000   0.0000   0.4458
   1.300   0.8914   0.00756   0.00324  -0.1744  0.7723  1.0000  -0.9385   0.0000   0.0000   0.0000   0.4432
   1.400   0.9025   0.00758   0.00322  -0.1743  0.7690  1.0000  -0.9519   0.0000   0.0000   0.0000   0.4406
   1.500   0.9142   0.00760   0.00320  -0.1744  0.7656  1.0000  -0.9663   0.0000   0.0000   0.0000   0.4381
   1.600   0.9265   0.00764   0.00319  -0.1746  0.7623  1.0000  -0.9818   0.0000   0.0000   0.0000   0.4356
   1.700   0.9374   0.00768   0.00321  -0.1745  0.7589  1.0000  -0.9971   0.0000   0.0000   0.0000   0.4332
   1.800   0.9465   0.00769   0.00323  -0.1741  0.7552  1.0000  -1.0110   0.0000   0.0000   0.0000   0.4308
   1.900   0.9562   0.00771   0.00324  -0.1737  0.7513  1.0000  -1.0253   0.0000   0.0000   0.0000   0.4285
   2.000   0.9663   0.00773   0.00325  -0.1734  0.7474  1.0000  -1.0413   0.0000   0.0000   0.0000   0.4262
   2.100   0.9770   0.00776   0.00325  -0.1733  0.7435  1.0000  -1.0584   0.0000   0.0000   0.0000   0.4240
   2.200   0.9882   0.00779   0.00324  -0.1733  0.7398  1.0000  -1.0759   0.0000   0.0000   0.0000   0.4218
   2.300   0.9999   0.00784   0.00324  -0.1733  0.7359  1.0000  -1.0956   0.0000   0.0000   0.0000   0.4197
   2.400   1.0096   0.00787   0.00327  -0.1730  0.7321  1.0000  -1.1139   0.0000   0.0000   0.0000   0.4176
   2.500   1.0188   0.00789   0.00330  -0.1726  0.7277  1.0000  -1.1335   0.0000   0.0000   0.0000   0.4155
   2.600   1.0285   0.00792   0.00334  -0.1722  0.7230  1.0000  -1.1544   0.0000   0.0000   0.0000   0.4134
   2.700   1.0387   0.00795   0.00334  -0.1720  0.7182  1.0000  -1.1759   0.0000   0.0000   0.0000   0.4114
   2.800   1.0492   0.00799   0.00334  -0.1718  0.7134  1.0000  -1.1980   0.0000   0.0000   0.0000   0.4095
   2.900   1.0599   0.00805   0.00335  -0.1716  0.7089  1.0000  -1.2202   0.0000   0.0000   0.0000   0.4076
   3.000   1.0690   0.00807   0.00340  -0.1712  0.7041  1.0000  -1.2408   0.0000   0.0000   0.0000   0.4056
   3.100   1.0784   0.00811   0.00342  -0.1708  0.6986  1.0000  -1.2618   0.0000   0.0000   0.0000   0.4037
   3.200   1.0881   0.00815   0.00344  -0.1704  0.6930  1.0000  -1.2833   0.0000   0.0000   0.0000   0.4019
   3.300   1.0981   0.00821   0.00345  -0.1701  0.6877  1.0000  -1.3053   0.0000   0.0000   0.0000   0.4001
   3.400   1.1079   0.00827   0.00349  -0.1698  0.6824  1.0000  -1.3270   0.0000   0.0000   0.0000   0.3983
   3.500   1.1168   0.00831   0.00353  -0.1693  0.6763  1.0000  -1.3479   0.0000   0.0000   0.0000   0.3965
   3.600   1.1260   0.00836   0.00356  -0.1689  0.6697  1.0000  -1.3709   0.0000   0.0000   0.0000   0.3948
   3.700   1.1353   0.00843   0.00359  -0.1685  0.6632  1.0000  -1.3953   0.0000   0.0000   0.0000   0.3930
   3.800   1.1445   0.00851   0.00363  -0.1680  0.6567  1.0000  -1.4196   0.0000   0.0000   0.0000   0.3913
   3.900   1.1532   0.00856   0.00368  -0.1675  0.6493  1.0000  -1.4434   0.0000   0.0000   0.0000   0.3896
   4.000   1.1618   0.00864   0.00372  -0.1669  0.6413  1.0000  -1.4673   0.0000   0.0000   0.0000   0.3879
   4.100   1.1704   0.00875   0.00376  -0.1664  0.6338  1.0000  -1.4913   0.0000   0.0000   0.0000   0.3863
   4.200   1.1792   0.00880   0.00385  -0.1659  0.6264  1.0000  -1.5154   0.0000   0.0000   0.0000   0.3847
   4.300   1.1876   0.00889   0.00391  -0.1653  0.6181  1.0000  -1.5393   0.0000   0.0000   0.0000   0.3830
   4.400   1.1958   0.00900   0.00396  -0.1646  0.6102  1.0000  -1.5656   0.0000   0.0000   0.0000   0.3814
   4.500   1.2045   0.00908   0.00403  -0.1641  0.6031  1.0000  -1.5968   0.0000   0.0000   0.0000   0.3799
   4.600   1.2130   0.00917   0.00410  -0.1636  0.5951  1.0000  -1.6278   0.0000   0.0000   0.0000   0.3783
   4.700   1.2208   0.00929   0.00417  -0.1629  0.5869  1.0000  -1.6580   0.0000   0.0000   0.0000   0.3768
   4.800   1.2290   0.00939   0.00425  -0.1623  0.5794  1.0000  -1.6888   0.0000   0.0000   0.0000   0.3753
   4.900   1.2371   0.00949   0.00433  -0.1616  0.5706  1.0000  -1.7197   0.0000   0.0000   0.0000   0.3738
   5.000   1.2442   0.00963   0.00441  -0.1608  0.5613  1.0000  -1.7491   0.0000   0.0000   0.0000   0.3722
   5.100   1.2518   0.00975   0.00450  -0.1601  0.5522  1.0000  -1.7794   0.0000   0.0000   0.0000   0.3707
   5.200   1.2589   0.00988   0.00459  -0.1592  0.5415  1.0000  -1.8092   0.0000   0.0000   0.0000   0.3692
   5.300   1.2649   0.01005   0.00469  -0.1582  0.5313  1.0000  -1.8373   0.0000   0.0000   0.0000   0.3677
   5.400   1.2722   0.01017   0.00479  -0.1574  0.5204  1.0000  -1.8677   0.0000   0.0000   0.0000   0.3662
   5.500   1.2778   0.01035   0.00490  -0.1563  0.5093  1.0000  -1.8952   0.0000   0.0000   0.0000   0.3647
   5.600   1.2844   0.01049   0.00501  -0.1554  0.4992  1.0000  -1.9245   0.0000   0.0000   0.0000   0.3632
   5.700   1.2900   0.01064   0.00515  -0.1543  0.4885  1.0000  -1.9525   0.0000   0.0000   0.0000   0.3617
   5.800   1.2952   0.01082   0.00527  -0.1531  0.4787  1.0000  -1.9820   0.0000   0.0000   0.0000   0.3601
   5.900   1.3016   0.01096   0.00539  -0.1522  0.4682  1.0000  -2.0149   0.0000   0.0000   0.0000   0.3587
   6.000   1.3061   0.01117   0.00553  -0.1509  0.4573  1.0000  -2.0444   0.0000   0.0000   0.0000   0.3572
   6.100   1.3122   0.01133   0.00566  -0.1499  0.4461  1.0000  -2.0772   0.0000   0.0000   0.0000   0.3558
   6.200   1.3163   0.01156   0.00581  -0.1485  0.4334  1.0000  -2.1061   0.0000   0.0000   0.0000   0.3542
   6.300   1.3214   0.01176   0.00596  -0.1474  0.4208  1.0000  -2.1371   0.0000   0.0000   0.0000   0.3528
   6.400   1.3249   0.01202   0.00614  -0.1460  0.4071  1.0000  -2.1653   0.0000   0.0000   0.0000   0.3513
   6.500   1.3301   0.01224   0.00630  -0.1448  0.3937  1.0000  -2.1967   0.0000   0.0000   0.0000   0.3499
   6.700   1.3393   0.01274   0.00667  -0.1425  0.3672  1.0000  -2.2575   0.0000   0.0000   0.0000   0.3471
   6.900   1.3493   0.01323   0.00704  -0.1403  0.3430  1.0000  -2.3204   0.0000   0.0000   0.0000   0.3444
   7.000   1.3537   0.01351   0.00725  -0.1391  0.3312  1.0000  -2.3508   0.0000   0.0000   0.0000   0.3431
   7.100   1.3595   0.01373   0.00744  -0.1382  0.3209  1.0000  -2.3840   0.0000   0.0000   0.0000   0.3418
   7.200   1.3643   0.01399   0.00765  -0.1371  0.3098  1.0000  -2.4155   0.0000   0.0000   0.0000   0.3405
   7.300   1.3692   0.01426   0.00786  -0.1360  0.2998  1.0000  -2.4471   0.0000   0.0000   0.0000   0.3392
   7.400   1.3749   0.01450   0.00809  -0.1351  0.2893  1.0000  -2.4824   0.0000   0.0000   0.0000   0.3380
   7.600   1.3854   0.01503   0.00853  -0.1331  0.2696  1.0000  -2.5554   0.0000   0.0000   0.0000   0.3355
   7.700   1.3902   0.01532   0.00876  -0.1321  0.2594  1.0000  -2.5914   0.0000   0.0000   0.0000   0.3343
   7.800   1.3953   0.01561   0.00900  -0.1311  0.2500  1.0000  -2.6279   0.0000   0.0000   0.0000   0.3331
   7.900   1.4011   0.01586   0.00922  -0.1303  0.2403  1.0000  -2.6662   0.0000   0.0000   0.0000   0.3320
   8.000   1.4051   0.01621   0.00950  -0.1292  0.2305  1.0000  -2.7004   0.0000   0.0000   0.0000   0.3308
   8.100   1.4109   0.01646   0.00973  -0.1283  0.2221  1.0000  -2.7390   0.0000   0.0000   0.0000   0.3297
   8.200   1.4157   0.01676   0.00999  -0.1273  0.2131  1.0000  -2.7784   0.0000   0.0000   0.0000   0.3285
   8.300   1.4195   0.01712   0.01029  -0.1262  0.2042  1.0000  -2.8166   0.0000   0.0000   0.0000   0.3273
   8.400   1.4257   0.01735   0.01052  -0.1254  0.1969  1.0000  -2.8614   0.0000   0.0000   0.0000   0.3262
   8.500   1.4306   0.01767   0.01079  -0.1245  0.1890  1.0000  -2.9028   0.0000   0.0000   0.0000   0.3251
   8.600   1.4346   0.01804   0.01110  -0.1234  0.1810  1.0000  -2.9444   0.0000   0.0000   0.0000   0.3240
   8.700   1.4411   0.01827   0.01134  -0.1227  0.1753  1.0000  -2.9956   0.0000   0.0000   0.0000   0.3230
   8.800   1.4465   0.01856   0.01161  -0.1219  0.1688  1.0000  -3.0441   0.0000   0.0000   0.0000   0.3219
   8.900   1.4506   0.01893   0.01194  -0.1209  0.1622  1.0000  -3.0923   0.0000   0.0000   0.0000   0.3208
   9.000   1.4551   0.01927   0.01227  -0.1199  0.1561  1.0000  -3.1435   0.0000   0.0000   0.0000   0.3198
   9.100   1.4612   0.01953   0.01253  -0.1192  0.1515  1.0000  -3.2001   0.0000   0.0000   0.0000   0.3188
   9.200   1.4664   0.01984   0.01283  -0.1184  0.1462  1.0000  -3.2541   0.0000   0.0000   0.0000   0.3177
   9.300   1.4706   0.02022   0.01318  -0.1174  0.1408  1.0000  -3.3049   0.0000   0.0000   0.0000   0.3167
   9.400   1.4742   0.02065   0.01357  -0.1164  0.1346  1.0000  -3.3534   0.0000   0.0000   0.0000   0.3156
   9.500   1.4808   0.02088   0.01383  -0.1157  0.1315  1.0000  -3.4132   0.0000   0.0000   0.0000   0.3147
   9.600   1.4863   0.02118   0.01413  -0.1150  0.1275  1.0000  -3.4697   0.0000   0.0000   0.0000   0.3137
   9.700   1.4909   0.02153   0.01447  -0.1141  0.1233  1.0000  -3.5231   0.0000   0.0000   0.0000   0.3128
   9.800   1.4946   0.02196   0.01486  -0.1131  0.1188  1.0000  -3.5733   0.0000   0.0000   0.0000   0.3118
   9.900   1.4976   0.02244   0.01531  -0.1121  0.1137  1.0000  -3.6205   0.0000   0.0000   0.0000   0.3107
  10.000   1.5035   0.02272   0.01562  -0.1114  0.1111  1.0000  -3.6793   0.0000   0.0000   0.0000   0.3098
  10.100   1.5096   0.02300   0.01593  -0.1108  0.1086  1.0000  -3.7391   0.0000   0.0000   0.0000   0.3089
  10.200   1.5150   0.02333   0.01627  -0.1101  0.1057  1.0000  -3.7965   0.0000   0.0000   0.0000   0.3080
  10.300   1.5195   0.02372   0.01665  -0.1092  0.1026  1.0000  -3.8511   0.0000   0.0000   0.0000   0.3071
  10.400   1.5231   0.02417   0.01708  -0.1083  0.0993  1.0000  -3.9021   0.0000   0.0000   0.0000   0.3062
  10.500   1.5257   0.02470   0.01759  -0.1073  0.0954  1.0000  -3.9493   0.0000   0.0000   0.0000   0.3052
  10.600   1.5281   0.02525   0.01815  -0.1062  0.0919  1.0000  -3.9949   0.0000   0.0000   0.0000   0.3042
  10.700   1.5348   0.02550   0.01845  -0.1057  0.0905  1.0000  -4.0588   0.0000   0.0000   0.0000   0.3034
  10.800   1.5407   0.02581   0.01878  -0.1052  0.0885  1.0000  -4.1202   0.0000   0.0000   0.0000   0.3026
  10.900   1.5459   0.02617   0.01917  -0.1045  0.0863  1.0000  -4.1785   0.0000   0.0000   0.0000   0.3018
  11.000   1.5502   0.02659   0.01959  -0.1037  0.0839  1.0000  -4.2340   0.0000   0.0000   0.0000   0.3009
  11.100   1.5537   0.02708   0.02007  -0.1029  0.0815  1.0000  -4.2863   0.0000   0.0000   0.0000   0.3000
  11.200   1.5565   0.02764   0.02061  -0.1020  0.0789  1.0000  -4.3356   0.0000   0.0000   0.0000   0.2992
  11.300   1.5579   0.02830   0.02127  -0.1010  0.0758  1.0000  -4.3785   0.0000   0.0000   0.0000   0.2983
  11.400   1.5590   0.02901   0.02199  -0.0999  0.0731  1.0000  -4.4188   0.0000   0.0000   0.0000   0.2973
  11.500   1.5653   0.02931   0.02233  -0.0994  0.0723  1.0000  -4.4836   0.0000   0.0000   0.0000   0.2966
  11.600   1.5709   0.02966   0.02272  -0.0989  0.0711  1.0000  -4.5457   0.0000   0.0000   0.0000   0.2958
  11.700   1.5760   0.03005   0.02314  -0.0983  0.0696  1.0000  -4.6059   0.0000   0.0000   0.0000   0.2951
  11.800   1.5807   0.03048   0.02360  -0.0977  0.0680  1.0000  -4.6646   0.0000   0.0000   0.0000   0.2943
  11.900   1.5849   0.03095   0.02409  -0.0970  0.0664  1.0000  -4.7214   0.0000   0.0000   0.0000   0.2935
  12.000   1.5886   0.03148   0.02462  -0.0963  0.0648  1.0000  -4.7764   0.0000   0.0000   0.0000   0.2928
  12.100   1.5917   0.03205   0.02519  -0.0956  0.0631  1.0000  -4.8290   0.0000   0.0000   0.0000   0.2920
  12.200   1.5937   0.03272   0.02586  -0.0948  0.0614  1.0000  -4.8765   0.0000   0.0000   0.0000   0.2913
  12.300   1.5943   0.03352   0.02667  -0.0938  0.0595  1.0000  -4.9166   0.0000   0.0000   0.0000   0.2905
  12.400   1.5934   0.03446   0.02764  -0.0928  0.0575  1.0000  -4.9485   0.0000   0.0000   0.0000   0.2896
  12.500   1.5964   0.03509   0.02832  -0.0921  0.0565  1.0000  -4.9991   0.0000   0.0000   0.0000   0.2889
  12.600   1.6020   0.03548   0.02875  -0.0917  0.0559  1.0000  -5.0636   0.0000   0.0000   0.0000   0.2882
  12.700   1.6068   0.03594   0.02925  -0.0912  0.0551  1.0000  -5.1247   0.0000   0.0000   0.0000   0.2876
  12.800   1.6111   0.03645   0.02980  -0.0907  0.0543  1.0000  -5.1832   0.0000   0.0000   0.0000   0.2869
  12.900   1.6151   0.03699   0.03038  -0.0901  0.0533  1.0000  -5.2404   0.0000   0.0000   0.0000   0.2862
  13.000   1.6188   0.03756   0.03098  -0.0896  0.0524  1.0000  -5.2969   0.0000   0.0000   0.0000   0.2856
  13.100   1.6224   0.03815   0.03160  -0.0891  0.0514  1.0000  -5.3528   0.0000   0.0000   0.0000   0.2849
  13.200   1.6257   0.03878   0.03225  -0.0885  0.0504  1.0000  -5.4082   0.0000   0.0000   0.0000   0.2843
  13.300   1.6284   0.03947   0.03296  -0.0879  0.0494  1.0000  -5.4660   0.0000   0.0000   0.0000   0.2836
  13.400   1.6303   0.04024   0.03374  -0.0874  0.0484  1.0000  -5.5202   0.0000   0.0000   0.0000   0.2830
  13.500   1.6316   0.04108   0.03459  -0.0867  0.0474  1.0000  -5.5710   0.0000   0.0000   0.0000   0.2824
  13.600   1.6321   0.04201   0.03554  -0.0861  0.0462  1.0000  -5.6169   0.0000   0.0000   0.0000   0.2817
  13.700   1.6314   0.04309   0.03665  -0.0854  0.0450  1.0000  -5.6549   0.0000   0.0000   0.0000   0.2811
  13.800   1.6287   0.04438   0.03798  -0.0846  0.0438  1.0000  -5.6813   0.0000   0.0000   0.0000   0.2805
  13.900   1.6277   0.04551   0.03916  -0.0839  0.0430  1.0000  -5.7169   0.0000   0.0000   0.0000   0.2799
  14.000   1.6319   0.04610   0.03980  -0.0835  0.0427  1.0000  -5.7834   0.0000   0.0000   0.0000   0.2794
  14.100   1.6359   0.04673   0.04047  -0.0832  0.0422  1.0000  -5.8483   0.0000   0.0000   0.0000   0.2788
  14.200   1.6394   0.04741   0.04119  -0.0828  0.0417  1.0000  -5.9113   0.0000   0.0000   0.0000   0.2783
  14.300   1.6424   0.04816   0.04199  -0.0825  0.0411  1.0000  -5.9709   0.0000   0.0000   0.0000   0.2777
  14.400   1.6447   0.04897   0.04285  -0.0821  0.0404  1.0000  -6.0277   0.0000   0.0000   0.0000   0.2772
  14.500   1.6470   0.04981   0.04373  -0.0817  0.0397  1.0000  -6.0836   0.0000   0.0000   0.0000   0.2767
  14.600   1.6492   0.05067   0.04462  -0.0814  0.0391  1.0000  -6.1523   0.0000   0.0000   0.0000   0.2762
  14.700   1.6514   0.05153   0.04552  -0.0811  0.0384  1.0000  -6.2328   0.0000   0.0000   0.0000   0.2757
  14.800   1.6532   0.05244   0.04649  -0.0808  0.0377  1.0000  -6.3120   0.0000   0.0000   0.0000   0.2753
  14.900   1.6541   0.05347   0.04754  -0.0804  0.0370  1.0000  -6.3848   0.0000   0.0000   0.0000   0.2748
  15.000   1.6547   0.05456   0.04865  -0.0801  0.0364  1.0000  -6.4546   0.0000   0.0000   0.0000   0.2744


