xflr5 v6.61

 Calculated polar for: SG6043

 1 1 Reynolds number fixed          Mach number fixed         

 xtrf =   1.000 (top)        1.000 (bottom)
 Mach =   0.000     Re =     0.375 e 6     Ncrit =   9.000

  alpha     CL        CD       CDp       Cm    Top Xtr Bot Xtr   Cpmin    Chinge    XCp    
 ------- -------- --------- --------- -------- ------- ------- -------- --------- ---------
 -10.000  -0.2223   0.11807   0.11534  -0.0588  0.9829  0.0181  -1.5527   0.0000   0.0000   0.0000  -0.0333
  -9.900  -0.2183   0.11663   0.11390  -0.0609  0.9817  0.0182  -1.6014   0.0000   0.0000   0.0000  -0.0480
  -9.800  -0.2140   0.11515   0.11243  -0.0630  0.9807  0.0182  -1.6448   0.0000   0.0000   0.0000  -0.0635
  -9.700  -0.2088   0.11360   0.11088  -0.0649  0.9797  0.0183  -1.6778   0.0000   0.0000   0.0000  -0.0805
  -9.600  -0.2030   0.11199   0.10927  -0.0668  0.9789  0.0183  -1.7067   0.0000   0.0000   0.0000  -0.0989
  -9.500  -0.1969   0.11039   0.10766  -0.0686  0.9781  0.0183  -1.7280   0.0000   0.0000   0.0000  -0.1187
  -9.400  -0.1907   0.10877   0.10604  -0.0704  0.9774  0.0184  -1.7501   0.0000   0.0000   0.0000  -0.1401
  -9.300  -0.1844   0.10713   0.10440  -0.0722  0.9768  0.0184  -1.7730   0.0000   0.0000   0.0000  -0.1632
  -9.200  -0.1780   0.10548   0.10274  -0.0741  0.9762  0.0184  -1.7972   0.0000   0.0000   0.0000  -0.1884
  -9.100  -0.1756   0.10267   0.09995  -0.0742  0.9759  0.0188  -1.7939   0.0000   0.0000   0.0000  -0.1950
  -9.000  -0.1673   0.10137   0.09865  -0.0744  0.9756  0.0190  -1.7226   0.0000   0.0000   0.0000  -0.2184
  -8.900  -0.1596   0.10012   0.09740  -0.0753  0.9752  0.0192  -1.6724   0.0000   0.0000   0.0000  -0.2461
  -8.800  -0.1520   0.09887   0.09614  -0.0764  0.9748  0.0195  -1.6347   0.0000   0.0000   0.0000  -0.2780
  -8.700  -0.1444   0.09759   0.09486  -0.0778  0.9744  0.0197  -1.6053   0.0000   0.0000   0.0000  -0.3149
  -8.600  -0.1483   0.09696   0.09424  -0.0762  0.9694  0.0198  -1.6030   0.0000   0.0000   0.0000  -0.2888
  -8.500  -0.1440   0.09583   0.09311  -0.0768  0.9674  0.0201  -1.5889   0.0000   0.0000   0.0000  -0.3089
  -8.400  -0.1389   0.09460   0.09189  -0.0778  0.9657  0.0205  -1.5781   0.0000   0.0000   0.0000  -0.3365
  -8.300  -0.1332   0.09331   0.09060  -0.0790  0.9642  0.0209  -1.5719   0.0000   0.0000   0.0000  -0.3702
  -8.200  -0.1273   0.09196   0.08924  -0.0804  0.9629  0.0213  -1.5712   0.0000   0.0000   0.0000  -0.4094
  -8.100  -0.1212   0.09054   0.08783  -0.0819  0.9617  0.0219  -1.5773   0.0000   0.0000   0.0000  -0.4550
  -8.000  -0.1149   0.08903   0.08631  -0.0837  0.9605  0.0226  -1.5946   0.0000   0.0000   0.0000  -0.5091
  -7.900  -0.1086   0.08732   0.08460  -0.0865  0.9592  0.0237  -1.6569   0.0000   0.0000   0.0000  -0.5782
  -7.800  -0.1023   0.08537   0.08266  -0.0920  0.9576  0.0245  -1.8160   0.0000   0.0000   0.0000  -0.6826
  -7.700  -0.0946   0.08371   0.08100  -0.0950  0.9566  0.0246  -1.8654   0.0000   0.0000   0.0000  -0.7904
  -7.600  -0.0868   0.08204   0.07932  -0.0978  0.9558  0.0247  -1.8957   0.0000   0.0000   0.0000  -0.9154
  -7.500  -0.0934   0.08157   0.07888  -0.0960  0.9500  0.0247  -1.9140   0.0000   0.0000   0.0000  -0.8133
  -7.400  -0.0930   0.08048   0.07779  -0.0964  0.9461  0.0248  -1.9361   0.0000   0.0000   0.0000  -0.8208
  -7.200  -0.0918   0.07582   0.07316  -0.0989  0.9416  0.0252  -2.0253   0.0000   0.0000   0.0000  -0.8626
  -7.100  -0.0852   0.07460   0.07193  -0.0992  0.9408  0.0255  -1.9606   0.0000   0.0000   0.0000  -0.9510
  -7.000  -0.0775   0.07355   0.07088  -0.0998  0.9399  0.0258  -1.8956   0.0000   0.0000   0.0000  -1.0768
  -6.900  -0.0692   0.07256   0.06990  -0.1005  0.9392  0.0261  -1.8293   0.0000   0.0000   0.0000  -1.2453
  -6.800  -0.0605   0.07161   0.06894  -0.1013  0.9384  0.0266  -1.7626   0.0000   0.0000   0.0000  -1.4739
  -6.700  -0.0515   0.07052   0.06785  -0.1027  0.9376  0.0271  -1.7082   0.0000   0.0000   0.0000  -1.7994
  -6.600  -0.0418   0.06920   0.06652  -0.1046  0.9368  0.0278  -1.6681   0.0000   0.0000   0.0000  -2.3221
  -6.500  -0.0316   0.06765   0.06497  -0.1072  0.9361  0.0287  -1.6436   0.0000   0.0000   0.0000  -3.2389
  -6.400  -0.0208   0.06591   0.06322  -0.1104  0.9353  0.0296  -1.6356   0.0000   0.0000   0.0000  -5.1876
  -6.300  -0.0087   0.06384   0.06114  -0.1147  0.9346  0.0307  -1.6501   0.0000   0.0000   0.0000  -13.3336
  -6.200  -0.0215   0.06385   0.06118  -0.1111  0.9261  0.0305  -1.6644   0.0000   0.0000   0.0000  -5.0556
  -6.100  -0.0121   0.06168   0.05899  -0.1158  0.9229  0.0317  -1.7221   0.0000   0.0000   0.0000  -9.5294
  -6.000   0.0078   0.05860   0.05586  -0.1247  0.9205  0.0326  -1.8239   0.0000   0.0000   0.0000  16.4898
  -5.900   0.0229   0.05614   0.05334  -0.1298  0.9191  0.0328  -1.8564   0.0000   0.0000   0.0000   6.0216
  -5.800   0.0373   0.05364   0.05078  -0.1342  0.9180  0.0329  -1.8862   0.0000   0.0000   0.0000   3.9114
  -5.700   0.0517   0.05115   0.04821  -0.1382  0.9170  0.0329  -1.9142   0.0000   0.0000   0.0000   2.9719
  -5.600   0.0579   0.04532   0.04230  -0.1441  0.9158  0.0338  -2.0477   0.0000   0.0000   0.0000   2.7800
  -5.500   0.0688   0.04412   0.04111  -0.1453  0.9152  0.0342  -1.9741   0.0000   0.0000   0.0000   2.3989
  -5.400   0.0810   0.04304   0.04002  -0.1468  0.9147  0.0346  -1.8999   0.0000   0.0000   0.0000   2.0931
  -5.300   0.0943   0.04191   0.03885  -0.1487  0.9142  0.0350  -1.8308   0.0000   0.0000   0.0000   1.8519
  -5.200   0.1084   0.04075   0.03767  -0.1507  0.9136  0.0355  -1.7655   0.0000   0.0000   0.0000   1.6615
  -5.100   0.1233   0.03949   0.03637  -0.1529  0.9131  0.0361  -1.7075   0.0000   0.0000   0.0000   1.5094
  -5.000   0.1385   0.03811   0.03493  -0.1553  0.9124  0.0369  -1.6599   0.0000   0.0000   0.0000   1.3882
  -4.900   0.1542   0.03661   0.03336  -0.1578  0.9117  0.0379  -1.6287   0.0000   0.0000   0.0000   1.2884
  -4.800   0.1516   0.03608   0.03280  -0.1558  0.9067  0.0382  -1.6335   0.0000   0.0000   0.0000   1.2924
  -4.700   0.1565   0.03509   0.03175  -0.1556  0.9031  0.0390  -1.6376   0.0000   0.0000   0.0000   1.2578
  -4.600   0.1693   0.03362   0.03018  -0.1571  0.9012  0.0405  -1.6522   0.0000   0.0000   0.0000   1.1904
  -4.500   0.1897   0.03354   0.02986  -0.1586  0.8999  0.0436  -1.6760   0.0000   0.0000   0.0000   1.0970
  -4.400   0.2048   0.03269   0.02886  -0.1600  0.8985  0.0439  -1.6777   0.0000   0.0000   0.0000   1.0415
  -4.200   0.2334   0.02232   0.01778  -0.1662  0.8959  0.0311  -2.1462   0.0000   0.0000   0.0000   0.9711
  -4.100   0.2500   0.01931   0.01435  -0.1681  0.8949  0.0285  -2.3089   0.0000   0.0000   0.0000   0.9312
  -4.000   0.2661   0.01761   0.01234  -0.1693  0.8941  0.0277  -2.3759   0.0000   0.0000   0.0000   0.8946
  -3.900   0.2814   0.01669   0.01124  -0.1703  0.8932  0.0276  -2.3619   0.0000   0.0000   0.0000   0.8628
  -3.800   0.2965   0.01597   0.01038  -0.1711  0.8923  0.0276  -2.3263   0.0000   0.0000   0.0000   0.8344
  -3.700   0.3111   0.01563   0.00999  -0.1719  0.8914  0.0281  -2.2491   0.0000   0.0000   0.0000   0.8092
  -3.600   0.3257   0.01541   0.00974  -0.1727  0.8904  0.0291  -2.1620   0.0000   0.0000   0.0000   0.7864
  -3.500   0.3405   0.01509   0.00936  -0.1734  0.8894  0.0298  -2.0857   0.0000   0.0000   0.0000   0.7651
  -3.400   0.3558   0.01466   0.00884  -0.1743  0.8884  0.0302  -2.0234   0.0000   0.0000   0.0000   0.7453
  -3.300   0.3712   0.01410   0.00818  -0.1752  0.8873  0.0300  -1.9735   0.0000   0.0000   0.0000   0.7270
  -3.200   0.3812   0.01370   0.00772  -0.1749  0.8853  0.0298  -1.9329   0.0000   0.0000   0.0000   0.7136
  -3.100   0.3882   0.01341   0.00739  -0.1740  0.8826  0.0297  -1.8957   0.0000   0.0000   0.0000   0.7028
  -3.000   0.3977   0.01309   0.00702  -0.1736  0.8802  0.0296  -1.8501   0.0000   0.0000   0.0000   0.6908
  -2.900   0.4087   0.01278   0.00667  -0.1735  0.8781  0.0296  -1.7983   0.0000   0.0000   0.0000   0.6786
  -2.800   0.4206   0.01248   0.00633  -0.1736  0.8762  0.0297  -1.7420   0.0000   0.0000   0.0000   0.6666
  -2.700   0.4331   0.01221   0.00602  -0.1739  0.8744  0.0299  -1.6822   0.0000   0.0000   0.0000   0.6550
  -2.600   0.4461   0.01194   0.00572  -0.1742  0.8727  0.0302  -1.6199   0.0000   0.0000   0.0000   0.6438
  -2.500   0.4595   0.01170   0.00545  -0.1746  0.8711  0.0306  -1.5558   0.0000   0.0000   0.0000   0.6331
  -2.400   0.4731   0.01147   0.00519  -0.1751  0.8695  0.0312  -1.4908   0.0000   0.0000   0.0000   0.6229
  -2.300   0.4868   0.01127   0.00496  -0.1755  0.8679  0.0319  -1.4253   0.0000   0.0000   0.0000   0.6133
  -2.200   0.5006   0.01111   0.00476  -0.1760  0.8664  0.0327  -1.3753   0.0000   0.0000   0.0000   0.6041
  -2.100   0.5152   0.01080   0.00441  -0.1768  0.8649  0.0350  -1.3536   0.0000   0.0000   0.0000   0.5953
  -2.000   0.5298   0.01063   0.00425  -0.1775  0.8634  0.0384  -1.3154   0.0000   0.0000   0.0000   0.5870
  -1.900   0.5437   0.01054   0.00414  -0.1780  0.8616  0.0430  -1.2803   0.0000   0.0000   0.0000   0.5793
  -1.800   0.5522   0.01035   0.00401  -0.1775  0.8593  0.0570  -1.2703   0.0000   0.0000   0.0000   0.5730
  -1.700   0.5617   0.01022   0.00396  -0.1771  0.8570  0.0757  -1.2381   0.0000   0.0000   0.0000   0.5669
  -1.600   0.5719   0.01014   0.00391  -0.1769  0.8546  0.0892  -1.1912   0.0000   0.0000   0.0000   0.5607
  -1.500   0.5829   0.01008   0.00387  -0.1769  0.8523  0.1002  -1.1382   0.0000   0.0000   0.0000   0.5547
  -1.400   0.5945   0.00998   0.00382  -0.1770  0.8501  0.1167  -1.0827   0.0000   0.0000   0.0000   0.5488
  -1.300   0.6066   0.00987   0.00378  -0.1772  0.8480  0.1389  -1.0253   0.0000   0.0000   0.0000   0.5431
  -1.200   0.6191   0.00972   0.00373  -0.1776  0.8460  0.1744  -0.9671   0.0000   0.0000   0.0000   0.5376
  -1.100   0.6319   0.00952   0.00368  -0.1780  0.8440  0.2287  -0.9096   0.0000   0.0000   0.0000   0.5324
  -1.000   0.6449   0.00930   0.00365  -0.1786  0.8422  0.2997  -0.8505   0.0000   0.0000   0.0000   0.5274
  -0.900   0.6585   0.00906   0.00364  -0.1793  0.8403  0.3912  -0.7902   0.0000   0.0000   0.0000   0.5226
  -0.800   0.6721   0.00881   0.00369  -0.1799  0.8383  0.5066  -0.7390   0.0000   0.0000   0.0000   0.5179
  -0.700   0.6842   0.00870   0.00376  -0.1802  0.8361  0.5819  -0.7469   0.0000   0.0000   0.0000   0.5133
  -0.600   0.6923   0.00862   0.00381  -0.1795  0.8336  0.6265  -0.7530   0.0000   0.0000   0.0000   0.5091
  -0.500   0.7011   0.00856   0.00385  -0.1789  0.8310  0.6644  -0.7596   0.0000   0.0000   0.0000   0.5049
  -0.400   0.7106   0.00850   0.00387  -0.1784  0.8283  0.6954  -0.7667   0.0000   0.0000   0.0000   0.5007
  -0.300   0.7206   0.00845   0.00387  -0.1781  0.8256  0.7218  -0.7743   0.0000   0.0000   0.0000   0.4966
  -0.200   0.7308   0.00839   0.00387  -0.1778  0.8230  0.7472  -0.7824   0.0000   0.0000   0.0000   0.4926
  -0.100   0.7410   0.00832   0.00386  -0.1774  0.8205  0.7745  -0.7907   0.0000   0.0000   0.0000   0.4886
   0.000   0.7510   0.00826   0.00384  -0.1770  0.8181  0.8037  -0.7992   0.0000   0.0000   0.0000   0.4848
   0.100   0.7605   0.00818   0.00381  -0.1764  0.8158  0.8344  -0.8075   0.0000   0.0000   0.0000   0.4809
   0.200   0.7696   0.00812   0.00379  -0.1757  0.8133  0.8680  -0.8156   0.0000   0.0000   0.0000   0.4772
   0.300   0.7767   0.00805   0.00377  -0.1746  0.8107  0.9112  -0.8231   0.0000   0.0000   0.0000   0.4735
   0.400   0.7882   0.00796   0.00371  -0.1745  0.8081  1.0000  -0.8331   0.0000   0.0000   0.0000   0.4700
   0.500   0.7980   0.00798   0.00371  -0.1742  0.8051  1.0000  -0.8420   0.0000   0.0000   0.0000   0.4668
   0.600   0.8085   0.00799   0.00370  -0.1740  0.8020  1.0000  -0.8516   0.0000   0.0000   0.0000   0.4636
   0.700   0.8195   0.00800   0.00368  -0.1739  0.7989  1.0000  -0.8623   0.0000   0.0000   0.0000   0.4605
   0.800   0.8309   0.00801   0.00365  -0.1740  0.7960  1.0000  -0.8739   0.0000   0.0000   0.0000   0.4575
   0.900   0.8427   0.00802   0.00362  -0.1740  0.7932  1.0000  -0.8858   0.0000   0.0000   0.0000   0.4545
   1.000   0.8554   0.00803   0.00359  -0.1743  0.7904  1.0000  -0.8985   0.0000   0.0000   0.0000   0.4517
   1.100   0.8686   0.00806   0.00357  -0.1747  0.7876  1.0000  -0.9125   0.0000   0.0000   0.0000   0.4489
   1.200   0.8803   0.00810   0.00358  -0.1748  0.7847  1.0000  -0.9254   0.0000   0.0000   0.0000   0.4462
   1.300   0.8892   0.00812   0.00361  -0.1743  0.7816  1.0000  -0.9365   0.0000   0.0000   0.0000   0.4435
   1.400   0.8988   0.00814   0.00362  -0.1739  0.7781  1.0000  -0.9487   0.0000   0.0000   0.0000   0.4409
   1.500   0.9091   0.00816   0.00362  -0.1737  0.7746  1.0000  -0.9619   0.0000   0.0000   0.0000   0.4384
   1.600   0.9197   0.00817   0.00361  -0.1735  0.7711  1.0000  -0.9759   0.0000   0.0000   0.0000   0.4359
   1.700   0.9311   0.00819   0.00359  -0.1735  0.7677  1.0000  -0.9915   0.0000   0.0000   0.0000   0.4334
   1.800   0.9432   0.00821   0.00357  -0.1736  0.7644  1.0000  -1.0078   0.0000   0.0000   0.0000   0.4310
   1.900   0.9562   0.00825   0.00356  -0.1740  0.7609  1.0000  -1.0247   0.0000   0.0000   0.0000   0.4288
   2.000   0.9653   0.00827   0.00359  -0.1735  0.7574  1.0000  -1.0399   0.0000   0.0000   0.0000   0.4265
   2.100   0.9743   0.00829   0.00361  -0.1730  0.7534  1.0000  -1.0554   0.0000   0.0000   0.0000   0.4242
   2.200   0.9840   0.00831   0.00363  -0.1727  0.7493  1.0000  -1.0716   0.0000   0.0000   0.0000   0.4220
   2.300   0.9943   0.00834   0.00363  -0.1724  0.7453  1.0000  -1.0896   0.0000   0.0000   0.0000   0.4198
   2.400   1.0054   0.00836   0.00362  -0.1724  0.7414  1.0000  -1.1093   0.0000   0.0000   0.0000   0.4177
   2.500   1.0172   0.00839   0.00361  -0.1724  0.7376  1.0000  -1.1309   0.0000   0.0000   0.0000   0.4156
   2.600   1.0283   0.00844   0.00364  -0.1724  0.7337  1.0000  -1.1532   0.0000   0.0000   0.0000   0.4136
   2.700   1.0368   0.00846   0.00368  -0.1718  0.7293  1.0000  -1.1730   0.0000   0.0000   0.0000   0.4116
   2.800   1.0459   0.00848   0.00371  -0.1713  0.7244  1.0000  -1.1935   0.0000   0.0000   0.0000   0.4096
   2.900   1.0559   0.00851   0.00371  -0.1710  0.7194  1.0000  -1.2149   0.0000   0.0000   0.0000   0.4076
   3.000   1.0665   0.00855   0.00371  -0.1709  0.7146  1.0000  -1.2372   0.0000   0.0000   0.0000   0.4057
   3.100   1.0779   0.00860   0.00371  -0.1709  0.7101  1.0000  -1.2604   0.0000   0.0000   0.0000   0.4039
   3.200   1.0866   0.00863   0.00376  -0.1703  0.7051  1.0000  -1.2807   0.0000   0.0000   0.0000   0.4020
   3.300   1.0956   0.00866   0.00379  -0.1698  0.6995  1.0000  -1.3016   0.0000   0.0000   0.0000   0.4002
   3.400   1.1052   0.00870   0.00381  -0.1695  0.6939  1.0000  -1.3231   0.0000   0.0000   0.0000   0.3984
   3.500   1.1154   0.00875   0.00382  -0.1692  0.6884  1.0000  -1.3454   0.0000   0.0000   0.0000   0.3966
   3.600   1.1253   0.00881   0.00384  -0.1689  0.6830  1.0000  -1.3689   0.0000   0.0000   0.0000   0.3949
   3.700   1.1339   0.00886   0.00389  -0.1683  0.6767  1.0000  -1.3923   0.0000   0.0000   0.0000   0.3931
   3.800   1.1429   0.00891   0.00393  -0.1678  0.6701  1.0000  -1.4164   0.0000   0.0000   0.0000   0.3914
   3.900   1.1523   0.00898   0.00395  -0.1674  0.6635  1.0000  -1.4412   0.0000   0.0000   0.0000   0.3897
   4.000   1.1615   0.00905   0.00399  -0.1670  0.6569  1.0000  -1.4657   0.0000   0.0000   0.0000   0.3881
   4.100   1.1699   0.00911   0.00404  -0.1664  0.6493  1.0000  -1.4894   0.0000   0.0000   0.0000   0.3864
   4.200   1.1785   0.00918   0.00412  -0.1658  0.6414  1.0000  -1.5134   0.0000   0.0000   0.0000   0.3847
   4.400   1.1958   0.00935   0.00422  -0.1647  0.6266  1.0000  -1.5642   0.0000   0.0000   0.0000   0.3815
   4.500   1.2041   0.00943   0.00428  -0.1641  0.6183  1.0000  -1.5947   0.0000   0.0000   0.0000   0.3799
   4.600   1.2124   0.00955   0.00434  -0.1635  0.6105  1.0000  -1.6254   0.0000   0.0000   0.0000   0.3784
   4.700   1.2210   0.00963   0.00441  -0.1630  0.6033  1.0000  -1.6567   0.0000   0.0000   0.0000   0.3769
   4.800   1.2292   0.00972   0.00448  -0.1624  0.5951  1.0000  -1.6876   0.0000   0.0000   0.0000   0.3753
   4.900   1.2370   0.00984   0.00456  -0.1616  0.5869  1.0000  -1.7180   0.0000   0.0000   0.0000   0.3738
   5.000   1.2451   0.00995   0.00464  -0.1610  0.5791  1.0000  -1.7490   0.0000   0.0000   0.0000   0.3723
   5.100   1.2529   0.01005   0.00472  -0.1603  0.5699  1.0000  -1.7797   0.0000   0.0000   0.0000   0.3708
   5.200   1.2597   0.01020   0.00481  -0.1594  0.5604  1.0000  -1.8090   0.0000   0.0000   0.0000   0.3693
   5.300   1.2672   0.01032   0.00490  -0.1587  0.5509  1.0000  -1.8394   0.0000   0.0000   0.0000   0.3678
   5.400   1.2738   0.01046   0.00500  -0.1578  0.5401  1.0000  -1.8687   0.0000   0.0000   0.0000   0.3663
   5.500   1.2800   0.01063   0.00511  -0.1568  0.5298  1.0000  -1.8973   0.0000   0.0000   0.0000   0.3648
   5.600   1.2868   0.01076   0.00521  -0.1559  0.5186  1.0000  -1.9271   0.0000   0.0000   0.0000   0.3634
   5.700   1.2919   0.01095   0.00536  -0.1547  0.5078  1.0000  -1.9542   0.0000   0.0000   0.0000   0.3618
   5.800   1.2985   0.01108   0.00547  -0.1538  0.4976  1.0000  -1.9862   0.0000   0.0000   0.0000   0.3604
   5.900   1.3036   0.01125   0.00559  -0.1526  0.4869  1.0000  -2.0167   0.0000   0.0000   0.0000   0.3588
   6.000   1.3089   0.01143   0.00571  -0.1514  0.4771  1.0000  -2.0478   0.0000   0.0000   0.0000   0.3573
   6.100   1.3147   0.01159   0.00584  -0.1504  0.4660  1.0000  -2.0798   0.0000   0.0000   0.0000   0.3559
   6.200   1.3185   0.01182   0.00600  -0.1489  0.4552  1.0000  -2.1083   0.0000   0.0000   0.0000   0.3544
   6.300   1.3244   0.01198   0.00613  -0.1479  0.4430  1.0000  -2.1408   0.0000   0.0000   0.0000   0.3530
   6.500   1.3328   0.01244   0.00646  -0.1453  0.4174  1.0000  -2.1997   0.0000   0.0000   0.0000   0.3500
   6.600   1.3356   0.01272   0.00666  -0.1437  0.4043  1.0000  -2.2267   0.0000   0.0000   0.0000   0.3485
   6.700   1.3409   0.01294   0.00683  -0.1427  0.3905  1.0000  -2.2586   0.0000   0.0000   0.0000   0.3471
   6.800   1.3442   0.01323   0.00704  -0.1412  0.3777  1.0000  -2.2866   0.0000   0.0000   0.0000   0.3457
   6.900   1.3495   0.01346   0.00722  -0.1402  0.3644  1.0000  -2.3188   0.0000   0.0000   0.0000   0.3443
   7.000   1.3532   0.01376   0.00744  -0.1389  0.3525  1.0000  -2.3476   0.0000   0.0000   0.0000   0.3429
   7.100   1.3588   0.01398   0.00762  -0.1379  0.3404  1.0000  -2.3806   0.0000   0.0000   0.0000   0.3417
   7.300   1.3680   0.01451   0.00805  -0.1357  0.3184  1.0000  -2.4426   0.0000   0.0000   0.0000   0.3390
   7.400   1.3722   0.01481   0.00831  -0.1345  0.3073  1.0000  -2.4740   0.0000   0.0000   0.0000   0.3377
   7.500   1.3773   0.01507   0.00853  -0.1335  0.2973  1.0000  -2.5102   0.0000   0.0000   0.0000   0.3365
   7.600   1.3825   0.01534   0.00876  -0.1325  0.2865  1.0000  -2.5465   0.0000   0.0000   0.0000   0.3353
   7.700   1.3866   0.01566   0.00902  -0.1313  0.2767  1.0000  -2.5805   0.0000   0.0000   0.0000   0.3340
   7.800   1.3925   0.01590   0.00924  -0.1305  0.2667  1.0000  -2.6190   0.0000   0.0000   0.0000   0.3329
   7.900   1.3967   0.01623   0.00950  -0.1294  0.2566  1.0000  -2.6534   0.0000   0.0000   0.0000   0.3316
   8.000   1.4020   0.01651   0.00975  -0.1284  0.2475  1.0000  -2.6906   0.0000   0.0000   0.0000   0.3305
   8.100   1.4068   0.01681   0.01001  -0.1274  0.2377  1.0000  -2.7268   0.0000   0.0000   0.0000   0.3293
   8.200   1.4102   0.01718   0.01031  -0.1262  0.2283  1.0000  -2.7614   0.0000   0.0000   0.0000   0.3281
   8.300   1.4160   0.01743   0.01056  -0.1254  0.2198  1.0000  -2.8048   0.0000   0.0000   0.0000   0.3270
   8.400   1.4203   0.01778   0.01085  -0.1244  0.2107  1.0000  -2.8443   0.0000   0.0000   0.0000   0.3258
   8.500   1.4246   0.01813   0.01115  -0.1234  0.2025  1.0000  -2.8839   0.0000   0.0000   0.0000   0.3247
   8.600   1.4303   0.01840   0.01141  -0.1226  0.1947  1.0000  -2.9291   0.0000   0.0000   0.0000   0.3236
   8.700   1.4346   0.01876   0.01172  -0.1216  0.1867  1.0000  -2.9739   0.0000   0.0000   0.0000   0.3225
   8.800   1.4386   0.01913   0.01205  -0.1205  0.1795  1.0000  -3.0176   0.0000   0.0000   0.0000   0.3214
   8.900   1.4444   0.01940   0.01232  -0.1197  0.1735  1.0000  -3.0672   0.0000   0.0000   0.0000   0.3204
   9.000   1.4491   0.01974   0.01265  -0.1188  0.1670  1.0000  -3.1187   0.0000   0.0000   0.0000   0.3193
   9.100   1.4527   0.02015   0.01302  -0.1178  0.1604  1.0000  -3.1668   0.0000   0.0000   0.0000   0.3183
   9.200   1.4578   0.02047   0.01334  -0.1169  0.1550  1.0000  -3.2198   0.0000   0.0000   0.0000   0.3172
   9.300   1.4635   0.02076   0.01363  -0.1162  0.1501  1.0000  -3.2756   0.0000   0.0000   0.0000   0.3163
   9.400   1.4683   0.02112   0.01397  -0.1153  0.1449  1.0000  -3.3284   0.0000   0.0000   0.0000   0.3152
   9.500   1.4719   0.02154   0.01435  -0.1143  0.1395  1.0000  -3.3772   0.0000   0.0000   0.0000   0.3142
   9.600   1.4751   0.02199   0.01478  -0.1133  0.1341  1.0000  -3.4244   0.0000   0.0000   0.0000   0.3132
   9.700   1.4814   0.02225   0.01507  -0.1126  0.1310  1.0000  -3.4831   0.0000   0.0000   0.0000   0.3122
   9.800   1.4867   0.02258   0.01541  -0.1119  0.1270  1.0000  -3.5388   0.0000   0.0000   0.0000   0.3113
   9.900   1.4912   0.02297   0.01577  -0.1110  0.1229  1.0000  -3.5919   0.0000   0.0000   0.0000   0.3103
  10.000   1.4948   0.02342   0.01620  -0.1101  0.1185  1.0000  -3.6419   0.0000   0.0000   0.0000   0.3094
  10.100   1.4970   0.02397   0.01672  -0.1090  0.1136  1.0000  -3.6864   0.0000   0.0000   0.0000   0.3083
  10.200   1.5027   0.02428   0.01706  -0.1083  0.1111  1.0000  -3.7441   0.0000   0.0000   0.0000   0.3074
  10.300   1.5085   0.02459   0.01740  -0.1076  0.1086  1.0000  -3.8028   0.0000   0.0000   0.0000   0.3066
  10.400   1.5134   0.02495   0.01778  -0.1069  0.1057  1.0000  -3.8587   0.0000   0.0000   0.0000   0.3057
  10.500   1.5178   0.02537   0.01819  -0.1061  0.1027  1.0000  -3.9125   0.0000   0.0000   0.0000   0.3048
  10.600   1.5214   0.02585   0.01865  -0.1052  0.0995  1.0000  -3.9638   0.0000   0.0000   0.0000   0.3039
  10.700   1.5238   0.02642   0.01922  -0.1042  0.0959  1.0000  -4.0100   0.0000   0.0000   0.0000   0.3029
  10.800   1.5242   0.02713   0.01992  -0.1030  0.0921  1.0000  -4.0472   0.0000   0.0000   0.0000   0.3019
  10.900   1.5307   0.02740   0.02024  -0.1025  0.0907  1.0000  -4.1105   0.0000   0.0000   0.0000   0.3011
  11.000   1.5365   0.02773   0.02061  -0.1019  0.0889  1.0000  -4.1710   0.0000   0.0000   0.0000   0.3003
  11.100   1.5416   0.02811   0.02102  -0.1013  0.0868  1.0000  -4.2292   0.0000   0.0000   0.0000   0.2995
  11.200   1.5461   0.02855   0.02147  -0.1006  0.0844  1.0000  -4.2849   0.0000   0.0000   0.0000   0.2987
  11.300   1.5499   0.02904   0.02196  -0.0999  0.0821  1.0000  -4.3386   0.0000   0.0000   0.0000   0.2979
  11.400   1.5528   0.02961   0.02252  -0.0990  0.0798  1.0000  -4.3884   0.0000   0.0000   0.0000   0.2971
  11.500   1.5543   0.03030   0.02320  -0.0981  0.0772  1.0000  -4.4315   0.0000   0.0000   0.0000   0.2962
  11.600   1.5537   0.03116   0.02407  -0.0969  0.0743  1.0000  -4.4647   0.0000   0.0000   0.0000   0.2953
  11.700   1.5570   0.03173   0.02466  -0.0961  0.0728  1.0000  -4.5151   0.0000   0.0000   0.0000   0.2945
  11.800   1.5630   0.03207   0.02505  -0.0957  0.0718  1.0000  -4.5785   0.0000   0.0000   0.0000   0.2938
  11.900   1.5684   0.03246   0.02548  -0.0952  0.0705  1.0000  -4.6393   0.0000   0.0000   0.0000   0.2930
  12.000   1.5731   0.03291   0.02597  -0.0946  0.0691  1.0000  -4.6977   0.0000   0.0000   0.0000   0.2923
  12.100   1.5773   0.03339   0.02648  -0.0940  0.0676  1.0000  -4.7544   0.0000   0.0000   0.0000   0.2916
  12.200   1.5810   0.03393   0.02704  -0.0934  0.0661  1.0000  -4.8091   0.0000   0.0000   0.0000   0.2908
  12.300   1.5843   0.03451   0.02763  -0.0927  0.0646  1.0000  -4.8623   0.0000   0.0000   0.0000   0.2901
  12.400   1.5871   0.03514   0.02826  -0.0920  0.0631  1.0000  -4.9132   0.0000   0.0000   0.0000   0.2894
  12.500   1.5891   0.03586   0.02899  -0.0913  0.0615  1.0000  -4.9602   0.0000   0.0000   0.0000   0.2887
  12.600   1.5895   0.03673   0.02988  -0.0905  0.0598  1.0000  -4.9992   0.0000   0.0000   0.0000   0.2879
  12.700   1.5882   0.03778   0.03095  -0.0895  0.0580  1.0000  -5.0287   0.0000   0.0000   0.0000   0.2872
  12.800   1.5882   0.03873   0.03194  -0.0886  0.0567  1.0000  -5.0639   0.0000   0.0000   0.0000   0.2864
  12.900   1.5936   0.03915   0.03241  -0.0883  0.0561  1.0000  -5.1274   0.0000   0.0000   0.0000   0.2858
  13.000   1.5986   0.03963   0.03293  -0.0878  0.0554  1.0000  -5.1888   0.0000   0.0000   0.0000   0.2852
  13.100   1.6029   0.04017   0.03352  -0.0874  0.0545  1.0000  -5.2469   0.0000   0.0000   0.0000   0.2845
  13.200   1.6066   0.04077   0.03416  -0.0869  0.0536  1.0000  -5.3024   0.0000   0.0000   0.0000   0.2839
  13.300   1.6100   0.04141   0.03484  -0.0864  0.0527  1.0000  -5.3566   0.0000   0.0000   0.0000   0.2833
  13.400   1.6132   0.04206   0.03553  -0.0859  0.0517  1.0000  -5.4147   0.0000   0.0000   0.0000   0.2827
  13.500   1.6164   0.04274   0.03624  -0.0855  0.0507  1.0000  -5.4742   0.0000   0.0000   0.0000   0.2821
  13.600   1.6191   0.04346   0.03698  -0.0850  0.0498  1.0000  -5.5318   0.0000   0.0000   0.0000   0.2815
  13.700   1.6211   0.04426   0.03780  -0.0845  0.0488  1.0000  -5.5861   0.0000   0.0000   0.0000   0.2809
  13.800   1.6223   0.04515   0.03871  -0.0840  0.0479  1.0000  -5.6361   0.0000   0.0000   0.0000   0.2803
  13.900   1.6228   0.04613   0.03970  -0.0834  0.0469  1.0000  -5.6820   0.0000   0.0000   0.0000   0.2798
  14.000   1.6224   0.04723   0.04082  -0.0828  0.0458  1.0000  -5.7220   0.0000   0.0000   0.0000   0.2792
  14.100   1.6206   0.04850   0.04213  -0.0822  0.0447  1.0000  -5.7529   0.0000   0.0000   0.0000   0.2787
  14.200   1.6171   0.05002   0.04369  -0.0815  0.0435  1.0000  -5.7716   0.0000   0.0000   0.0000   0.2782
  14.300   1.6179   0.05104   0.04476  -0.0811  0.0429  1.0000  -5.8168   0.0000   0.0000   0.0000   0.2776
  14.400   1.6215   0.05174   0.04552  -0.0808  0.0425  1.0000  -5.8791   0.0000   0.0000   0.0000   0.2771
  14.500   1.6248   0.05249   0.04632  -0.0805  0.0421  1.0000  -5.9395   0.0000   0.0000   0.0000   0.2767
  14.600   1.6276   0.05330   0.04718  -0.0802  0.0415  1.0000  -5.9975   0.0000   0.0000   0.0000   0.2762
  14.700   1.6298   0.05419   0.04812  -0.0799  0.0409  1.0000  -6.0583   0.0000   0.0000   0.0000   0.2757
  14.800   1.6316   0.05513   0.04910  -0.0797  0.0403  1.0000  -6.1344   0.0000   0.0000   0.0000   0.2753
  14.900   1.6334   0.05609   0.05011  -0.0794  0.0396  1.0000  -6.2103   0.0000   0.0000   0.0000   0.2748
  15.000   1.6350   0.05707   0.05115  -0.0792  0.0389  1.0000  -6.2870   0.0000   0.0000   0.0000   0.2744


