xflr5 v6.61

 Calculated polar for: SG6043

 1 1 Reynolds number fixed          Mach number fixed         

 xtrf =   1.000 (top)        1.000 (bottom)
 Mach =   0.000     Re =     0.475 e 6     Ncrit =   9.000

  alpha     CL        CD       CDp       Cm    Top Xtr Bot Xtr   Cpmin    Chinge    XCp    
 ------- -------- --------- --------- -------- ------- ------- -------- --------- ---------
 -10.000  -0.1964   0.11318   0.11070  -0.0651  0.9810  0.0141  -1.5467   0.0000   0.0000   0.0000  -0.1034
  -9.900  -0.1905   0.11182   0.10935  -0.0663  0.9803  0.0142  -1.5331   0.0000   0.0000   0.0000  -0.1204
  -9.800  -0.1846   0.11046   0.10798  -0.0676  0.9797  0.0143  -1.5217   0.0000   0.0000   0.0000  -0.1390
  -9.700  -0.1786   0.10907   0.10660  -0.0689  0.9790  0.0145  -1.5123   0.0000   0.0000   0.0000  -0.1595
  -9.600  -0.1724   0.10766   0.10519  -0.0703  0.9784  0.0146  -1.5047   0.0000   0.0000   0.0000  -0.1821
  -9.500  -0.1661   0.10623   0.10376  -0.0718  0.9779  0.0148  -1.4991   0.0000   0.0000   0.0000  -0.2070
  -9.400  -0.1598   0.10479   0.10231  -0.0733  0.9773  0.0150  -1.4955   0.0000   0.0000   0.0000  -0.2345
  -9.300  -0.1533   0.10333   0.10085  -0.0748  0.9768  0.0152  -1.4940   0.0000   0.0000   0.0000  -0.2646
  -9.200  -0.1468   0.10186   0.09937  -0.0764  0.9763  0.0155  -1.4948   0.0000   0.0000   0.0000  -0.2980
  -9.100  -0.1403   0.10037   0.09788  -0.0781  0.9758  0.0157  -1.4981   0.0000   0.0000   0.0000  -0.3349
  -9.000  -0.1337   0.09887   0.09638  -0.0797  0.9754  0.0160  -1.5045   0.0000   0.0000   0.0000  -0.3760
  -8.900  -0.1271   0.09733   0.09485  -0.0815  0.9750  0.0164  -1.5156   0.0000   0.0000   0.0000  -0.4222
  -8.800  -0.1203   0.09574   0.09325  -0.0834  0.9746  0.0168  -1.5356   0.0000   0.0000   0.0000  -0.4758
  -8.700  -0.1240   0.09492   0.09244  -0.0821  0.9698  0.0171  -1.5580   0.0000   0.0000   0.0000  -0.4429
  -8.600  -0.1216   0.09336   0.09089  -0.0837  0.9670  0.0178  -1.6408   0.0000   0.0000   0.0000  -0.4697
  -8.500  -0.1188   0.09161   0.08914  -0.0867  0.9644  0.0182  -1.7683   0.0000   0.0000   0.0000  -0.5122
  -8.400  -0.1132   0.08999   0.08752  -0.0889  0.9629  0.0183  -1.8241   0.0000   0.0000   0.0000  -0.5683
  -8.300  -0.1071   0.08834   0.08588  -0.0908  0.9616  0.0183  -1.8664   0.0000   0.0000   0.0000  -0.6332
  -8.200  -0.1008   0.08663   0.08416  -0.0929  0.9604  0.0184  -1.9098   0.0000   0.0000   0.0000  -0.7083
  -8.100  -0.1007   0.08336   0.08091  -0.0950  0.9593  0.0187  -2.0283   0.0000   0.0000   0.0000  -0.7307
  -8.000  -0.0939   0.08217   0.07972  -0.0955  0.9588  0.0190  -1.9604   0.0000   0.0000   0.0000  -0.8065
  -7.900  -0.0857   0.08121   0.07876  -0.0962  0.9582  0.0192  -1.8863   0.0000   0.0000   0.0000  -0.9138
  -7.800  -0.0774   0.08021   0.07776  -0.0970  0.9577  0.0195  -1.8240   0.0000   0.0000   0.0000  -1.0496
  -7.700  -0.0693   0.07911   0.07666  -0.0983  0.9571  0.0198  -1.7774   0.0000   0.0000   0.0000  -1.2196
  -7.600  -0.0612   0.07791   0.07546  -0.0998  0.9566  0.0201  -1.7427   0.0000   0.0000   0.0000  -1.4382
  -7.500  -0.0531   0.07663   0.07417  -0.1015  0.9560  0.0205  -1.7176   0.0000   0.0000   0.0000  -1.7281
  -7.400  -0.0449   0.07525   0.07279  -0.1035  0.9554  0.0210  -1.7005   0.0000   0.0000   0.0000  -2.1319
  -7.300  -0.0542   0.07501   0.07257  -0.1006  0.9478  0.0210  -1.7127   0.0000   0.0000   0.0000  -1.6671
  -7.200  -0.0500   0.07382   0.07138  -0.1016  0.9454  0.0214  -1.7080   0.0000   0.0000   0.0000  -1.8462
  -7.100  -0.0448   0.07248   0.07005  -0.1031  0.9434  0.0218  -1.7069   0.0000   0.0000   0.0000  -2.1226
  -7.000  -0.0391   0.07104   0.06861  -0.1048  0.9417  0.0223  -1.7118   0.0000   0.0000   0.0000  -2.5105
  -6.900  -0.0332   0.06946   0.06703  -0.1069  0.9400  0.0229  -1.7274   0.0000   0.0000   0.0000  -3.0581
  -6.800  -0.0256   0.06733   0.06489  -0.1106  0.9383  0.0237  -1.7846   0.0000   0.0000   0.0000  -4.1809
  -6.700  -0.0098   0.06434   0.06188  -0.1183  0.9369  0.0245  -1.9044   0.0000   0.0000   0.0000  -12.1191
  -6.600   0.0037   0.06204   0.05958  -0.1233  0.9360  0.0247  -1.9365   0.0000   0.0000   0.0000  34.0061
  -6.300   0.0136   0.05383   0.05134  -0.1329  0.9256  0.0254  -2.1319   0.0000   0.0000   0.0000  10.1959
  -6.200   0.0203   0.05316   0.05066  -0.1328  0.9241  0.0257  -2.0460   0.0000   0.0000   0.0000   6.9485
  -6.100   0.0292   0.05228   0.04979  -0.1338  0.9227  0.0260  -1.9711   0.0000   0.0000   0.0000   4.9269
  -6.000   0.0394   0.05133   0.04882  -0.1352  0.9215  0.0263  -1.9008   0.0000   0.0000   0.0000   3.7454
  -5.900   0.0511   0.05006   0.04754  -0.1374  0.9203  0.0267  -1.8467   0.0000   0.0000   0.0000   2.9919
  -5.800   0.0639   0.04854   0.04600  -0.1402  0.9192  0.0270  -1.8047   0.0000   0.0000   0.0000   2.4830
  -5.700   0.0780   0.04682   0.04423  -0.1435  0.9181  0.0275  -1.7710   0.0000   0.0000   0.0000   2.1226
  -5.600   0.0931   0.04492   0.04229  -0.1472  0.9171  0.0281  -1.7468   0.0000   0.0000   0.0000   1.8587
  -5.500   0.1088   0.04285   0.04017  -0.1511  0.9160  0.0288  -1.7329   0.0000   0.0000   0.0000   1.6614
  -5.400   0.1256   0.04054   0.03778  -0.1553  0.9149  0.0298  -1.7346   0.0000   0.0000   0.0000   1.5057
  -5.300   0.1494   0.03743   0.03448  -0.1610  0.9137  0.0322  -1.8204   0.0000   0.0000   0.0000   1.3442
  -5.200   0.1695   0.03588   0.03273  -0.1643  0.9126  0.0328  -1.8358   0.0000   0.0000   0.0000   1.2343
  -5.100   0.1857   0.03411   0.03080  -0.1671  0.9113  0.0329  -1.8473   0.0000   0.0000   0.0000   1.1637
  -5.000   0.1795   0.02955   0.02604  -0.1678  0.9056  0.0339  -2.0219   0.0000   0.0000   0.0000   1.1985
  -4.900   0.1871   0.02823   0.02467  -0.1683  0.9030  0.0344  -1.9997   0.0000   0.0000   0.0000   1.1625
  -4.800   0.1972   0.02750   0.02393  -0.1688  0.9010  0.0348  -1.9495   0.0000   0.0000   0.0000   1.1176
  -4.700   0.2084   0.02678   0.02320  -0.1694  0.8992  0.0352  -1.9004   0.0000   0.0000   0.0000   1.0739
  -4.600   0.2252   0.02013   0.01565  -0.1721  0.8969  0.0252  -2.4851   0.0000   0.0000   0.0000   1.0253
  -4.500   0.2376   0.01834   0.01375  -0.1731  0.8954  0.0236  -2.5328   0.0000   0.0000   0.0000   0.9887
  -4.400   0.2513   0.01699   0.01218  -0.1740  0.8939  0.0234  -2.5754   0.0000   0.0000   0.0000   0.9518
  -4.300   0.2656   0.01608   0.01110  -0.1748  0.8926  0.0235  -2.5717   0.0000   0.0000   0.0000   0.9171
  -4.200   0.2800   0.01539   0.01026  -0.1756  0.8913  0.0237  -2.5413   0.0000   0.0000   0.0000   0.8855
  -4.100   0.2945   0.01480   0.00956  -0.1764  0.8900  0.0239  -2.4963   0.0000   0.0000   0.0000   0.8567
  -4.000   0.3091   0.01429   0.00894  -0.1771  0.8886  0.0240  -2.4429   0.0000   0.0000   0.0000   0.8306
  -3.900   0.3236   0.01383   0.00838  -0.1779  0.8871  0.0241  -2.3841   0.0000   0.0000   0.0000   0.8068
  -3.800   0.3332   0.01351   0.00800  -0.1776  0.8852  0.0242  -2.3327   0.0000   0.0000   0.0000   0.7896
  -3.700   0.3422   0.01339   0.00784  -0.1771  0.8830  0.0245  -2.2680   0.0000   0.0000   0.0000   0.7739
  -3.600   0.3522   0.01342   0.00784  -0.1768  0.8807  0.0248  -2.1884   0.0000   0.0000   0.0000   0.7579
  -3.500   0.3628   0.01272   0.00703  -0.1768  0.8786  0.0251  -2.1534   0.0000   0.0000   0.0000   0.7429
  -3.400   0.3740   0.01223   0.00649  -0.1769  0.8765  0.0254  -2.1032   0.0000   0.0000   0.0000   0.7282
  -3.300   0.3857   0.01190   0.00612  -0.1770  0.8745  0.0254  -2.0431   0.0000   0.0000   0.0000   0.7138
  -3.200   0.3977   0.01163   0.00580  -0.1771  0.8726  0.0254  -1.9798   0.0000   0.0000   0.0000   0.7000
  -3.100   0.4099   0.01135   0.00549  -0.1773  0.8708  0.0253  -1.9163   0.0000   0.0000   0.0000   0.6870
  -3.000   0.4226   0.01107   0.00517  -0.1776  0.8690  0.0253  -1.8521   0.0000   0.0000   0.0000   0.6744
  -2.900   0.4357   0.01079   0.00485  -0.1780  0.8673  0.0254  -1.7869   0.0000   0.0000   0.0000   0.6624
  -2.800   0.4492   0.01052   0.00454  -0.1785  0.8655  0.0256  -1.7209   0.0000   0.0000   0.0000   0.6510
  -2.700   0.4629   0.01028   0.00426  -0.1791  0.8637  0.0259  -1.6536   0.0000   0.0000   0.0000   0.6402
  -2.600   0.4763   0.01009   0.00404  -0.1796  0.8616  0.0263  -1.5863   0.0000   0.0000   0.0000   0.6301
  -2.500   0.4855   0.00995   0.00389  -0.1791  0.8596  0.0267  -1.5288   0.0000   0.0000   0.0000   0.6219
  -2.400   0.4954   0.00983   0.00376  -0.1789  0.8575  0.0273  -1.4683   0.0000   0.0000   0.0000   0.6137
  -2.300   0.5059   0.00972   0.00364  -0.1787  0.8552  0.0281  -1.4180   0.0000   0.0000   0.0000   0.6057
  -2.200   0.5168   0.00962   0.00354  -0.1786  0.8530  0.0291  -1.3778   0.0000   0.0000   0.0000   0.5979
  -2.100   0.5281   0.00953   0.00343  -0.1786  0.8509  0.0304  -1.3392   0.0000   0.0000   0.0000   0.5903
  -2.000   0.5397   0.00945   0.00333  -0.1786  0.8488  0.0322  -1.3025   0.0000   0.0000   0.0000   0.5829
  -1.900   0.5516   0.00928   0.00316  -0.1787  0.8468  0.0370  -1.2793   0.0000   0.0000   0.0000   0.5758
  -1.800   0.5639   0.00911   0.00305  -0.1790  0.8449  0.0514  -1.2545   0.0000   0.0000   0.0000   0.5690
  -1.700   0.5765   0.00898   0.00298  -0.1793  0.8429  0.0716  -1.2112   0.0000   0.0000   0.0000   0.5624
  -1.600   0.5892   0.00893   0.00292  -0.1796  0.8409  0.0830  -1.1561   0.0000   0.0000   0.0000   0.5561
  -1.500   0.6023   0.00886   0.00289  -0.1800  0.8388  0.0962  -1.0972   0.0000   0.0000   0.0000   0.5500
  -1.400   0.6154   0.00884   0.00286  -0.1804  0.8365  0.1087  -1.0374   0.0000   0.0000   0.0000   0.5442
  -1.300   0.6249   0.00877   0.00286  -0.1801  0.8346  0.1243  -0.9861   0.0000   0.0000   0.0000   0.5391
  -1.200   0.6349   0.00868   0.00285  -0.1799  0.8323  0.1491  -0.9339   0.0000   0.0000   0.0000   0.5341
  -1.100   0.6453   0.00856   0.00284  -0.1798  0.8299  0.1849  -0.8812   0.0000   0.0000   0.0000   0.5292
  -1.000   0.6561   0.00842   0.00283  -0.1799  0.8275  0.2348  -0.8271   0.0000   0.0000   0.0000   0.5245
  -0.900   0.6673   0.00823   0.00282  -0.1800  0.8250  0.2991  -0.7726   0.0000   0.0000   0.0000   0.5200
  -0.800   0.6787   0.00804   0.00283  -0.1802  0.8226  0.3762  -0.7436   0.0000   0.0000   0.0000   0.5156
  -0.700   0.6902   0.00784   0.00285  -0.1804  0.8203  0.4645  -0.7512   0.0000   0.0000   0.0000   0.5114
  -0.600   0.7020   0.00769   0.00289  -0.1806  0.8180  0.5433  -0.7592   0.0000   0.0000   0.0000   0.5071
  -0.500   0.7139   0.00760   0.00291  -0.1807  0.8156  0.5982  -0.7676   0.0000   0.0000   0.0000   0.5029
  -0.400   0.7261   0.00755   0.00294  -0.1809  0.8132  0.6408  -0.7761   0.0000   0.0000   0.0000   0.4987
  -0.200   0.7466   0.00747   0.00300  -0.1804  0.8083  0.6971  -0.7919   0.0000   0.0000   0.0000   0.4910
  -0.100   0.7560   0.00743   0.00302  -0.1799  0.8057  0.7195  -0.7999   0.0000   0.0000   0.0000   0.4872
   0.000   0.7655   0.00739   0.00303  -0.1795  0.8030  0.7421  -0.8081   0.0000   0.0000   0.0000   0.4836
   0.100   0.7750   0.00734   0.00304  -0.1791  0.8002  0.7672  -0.8164   0.0000   0.0000   0.0000   0.4800
   0.200   0.7844   0.00729   0.00305  -0.1786  0.7974  0.7938  -0.8247   0.0000   0.0000   0.0000   0.4765
   0.300   0.7936   0.00724   0.00304  -0.1780  0.7946  0.8211  -0.8335   0.0000   0.0000   0.0000   0.4730
   0.400   0.8025   0.00719   0.00303  -0.1773  0.7918  0.8511  -0.8421   0.0000   0.0000   0.0000   0.4695
   0.500   0.8103   0.00713   0.00301  -0.1764  0.7889  0.8860  -0.8501   0.0000   0.0000   0.0000   0.4661
   0.600   0.8185   0.00706   0.00298  -0.1755  0.7858  0.9382  -0.8587   0.0000   0.0000   0.0000   0.4627
   0.700   0.8309   0.00701   0.00294  -0.1757  0.7833  1.0000  -0.8705   0.0000   0.0000   0.0000   0.4597
   0.800   0.8409   0.00703   0.00295  -0.1754  0.7804  1.0000  -0.8812   0.0000   0.0000   0.0000   0.4567
   0.900   0.8512   0.00705   0.00295  -0.1752  0.7773  1.0000  -0.8922   0.0000   0.0000   0.0000   0.4539
   1.000   0.8618   0.00706   0.00295  -0.1751  0.7741  1.0000  -0.9038   0.0000   0.0000   0.0000   0.4510
   1.100   0.8727   0.00708   0.00294  -0.1750  0.7709  1.0000  -0.9162   0.0000   0.0000   0.0000   0.4483
   1.200   0.8840   0.00711   0.00293  -0.1750  0.7678  1.0000  -0.9289   0.0000   0.0000   0.0000   0.4456
   1.300   0.8957   0.00714   0.00292  -0.1751  0.7645  1.0000  -0.9420   0.0000   0.0000   0.0000   0.4429
   1.400   0.9081   0.00719   0.00291  -0.1753  0.7610  1.0000  -0.9564   0.0000   0.0000   0.0000   0.4404
   1.500   0.9179   0.00721   0.00293  -0.1750  0.7579  1.0000  -0.9693   0.0000   0.0000   0.0000   0.4379
   1.600   0.9275   0.00723   0.00295  -0.1746  0.7543  1.0000  -0.9830   0.0000   0.0000   0.0000   0.4354
   1.700   0.9374   0.00724   0.00296  -0.1743  0.7504  1.0000  -0.9975   0.0000   0.0000   0.0000   0.4330
   1.800   0.9478   0.00727   0.00296  -0.1741  0.7465  1.0000  -1.0124   0.0000   0.0000   0.0000   0.4306
   1.900   0.9586   0.00729   0.00296  -0.1740  0.7427  1.0000  -1.0277   0.0000   0.0000   0.0000   0.4283
   2.000   0.9697   0.00733   0.00295  -0.1739  0.7390  1.0000  -1.0448   0.0000   0.0000   0.0000   0.4261
   2.100   0.9813   0.00739   0.00296  -0.1740  0.7352  1.0000  -1.0626   0.0000   0.0000   0.0000   0.4239
   2.200   0.9907   0.00741   0.00299  -0.1736  0.7316  1.0000  -1.0785   0.0000   0.0000   0.0000   0.4217
   2.300   1.0003   0.00743   0.00301  -0.1733  0.7273  1.0000  -1.0964   0.0000   0.0000   0.0000   0.4195
   2.400   1.0103   0.00746   0.00303  -0.1730  0.7228  1.0000  -1.1150   0.0000   0.0000   0.0000   0.4174
   2.500   1.0205   0.00749   0.00304  -0.1727  0.7181  1.0000  -1.1360   0.0000   0.0000   0.0000   0.4154
   2.600   1.0309   0.00754   0.00306  -0.1725  0.7134  1.0000  -1.1577   0.0000   0.0000   0.0000   0.4133
   2.700   1.0414   0.00759   0.00307  -0.1724  0.7088  1.0000  -1.1796   0.0000   0.0000   0.0000   0.4114
   2.800   1.0508   0.00762   0.00311  -0.1720  0.7042  1.0000  -1.2003   0.0000   0.0000   0.0000   0.4094
   2.900   1.0604   0.00765   0.00314  -0.1716  0.6989  1.0000  -1.2214   0.0000   0.0000   0.0000   0.4074
   3.000   1.0702   0.00769   0.00315  -0.1713  0.6934  1.0000  -1.2428   0.0000   0.0000   0.0000   0.4055
   3.100   1.0801   0.00775   0.00317  -0.1710  0.6881  1.0000  -1.2644   0.0000   0.0000   0.0000   0.4037
   3.200   1.0899   0.00781   0.00320  -0.1707  0.6829  1.0000  -1.2860   0.0000   0.0000   0.0000   0.4018
   3.300   1.0992   0.00785   0.00324  -0.1703  0.6772  1.0000  -1.3072   0.0000   0.0000   0.0000   0.4000
   3.400   1.1085   0.00790   0.00327  -0.1698  0.6707  1.0000  -1.3284   0.0000   0.0000   0.0000   0.3982
   3.500   1.1177   0.00797   0.00330  -0.1694  0.6642  1.0000  -1.3497   0.0000   0.0000   0.0000   0.3964
   3.600   1.1270   0.00805   0.00333  -0.1690  0.6580  1.0000  -1.3730   0.0000   0.0000   0.0000   0.3947
   3.700   1.1360   0.00810   0.00338  -0.1685  0.6510  1.0000  -1.3971   0.0000   0.0000   0.0000   0.3930
   3.800   1.1448   0.00817   0.00342  -0.1680  0.6430  1.0000  -1.4208   0.0000   0.0000   0.0000   0.3912
   3.900   1.1532   0.00828   0.00346  -0.1674  0.6352  1.0000  -1.4443   0.0000   0.0000   0.0000   0.3895
   4.000   1.1622   0.00834   0.00352  -0.1669  0.6280  1.0000  -1.4686   0.0000   0.0000   0.0000   0.3879
   4.200   1.1789   0.00853   0.00365  -0.1657  0.6115  1.0000  -1.5160   0.0000   0.0000   0.0000   0.3846
   4.300   1.1876   0.00862   0.00372  -0.1652  0.6044  1.0000  -1.5401   0.0000   0.0000   0.0000   0.3830
   4.400   1.1964   0.00870   0.00378  -0.1647  0.5966  1.0000  -1.5676   0.0000   0.0000   0.0000   0.3814
   4.500   1.2044   0.00881   0.00385  -0.1641  0.5885  1.0000  -1.5978   0.0000   0.0000   0.0000   0.3798
   4.600   1.2124   0.00892   0.00392  -0.1634  0.5810  1.0000  -1.6280   0.0000   0.0000   0.0000   0.3783
   4.700   1.2210   0.00901   0.00400  -0.1629  0.5729  1.0000  -1.6594   0.0000   0.0000   0.0000   0.3768
   4.800   1.2286   0.00913   0.00407  -0.1621  0.5638  1.0000  -1.6893   0.0000   0.0000   0.0000   0.3752
   4.900   1.2359   0.00926   0.00416  -0.1614  0.5551  1.0000  -1.7189   0.0000   0.0000   0.0000   0.3737
   5.000   1.2438   0.00937   0.00424  -0.1607  0.5450  1.0000  -1.7496   0.0000   0.0000   0.0000   0.3722
   5.100   1.2500   0.00953   0.00434  -0.1597  0.5345  1.0000  -1.7778   0.0000   0.0000   0.0000   0.3706
   5.200   1.2574   0.00966   0.00443  -0.1589  0.5243  1.0000  -1.8080   0.0000   0.0000   0.0000   0.3691
   5.300   1.2638   0.00981   0.00454  -0.1580  0.5128  1.0000  -1.8367   0.0000   0.0000   0.0000   0.3676
   5.400   1.2699   0.00997   0.00464  -0.1570  0.5026  1.0000  -1.8650   0.0000   0.0000   0.0000   0.3661
   5.500   1.2765   0.01011   0.00474  -0.1561  0.4918  1.0000  -1.8942   0.0000   0.0000   0.0000   0.3646
   5.700   1.2883   0.01042   0.00499  -0.1540  0.4719  1.0000  -1.9507   0.0000   0.0000   0.0000   0.3616
   5.800   1.2938   0.01060   0.00511  -0.1529  0.4610  1.0000  -1.9809   0.0000   0.0000   0.0000   0.3601
   5.900   1.2995   0.01077   0.00524  -0.1518  0.4509  1.0000  -2.0125   0.0000   0.0000   0.0000   0.3586
   6.000   1.3051   0.01095   0.00538  -0.1507  0.4384  1.0000  -2.0443   0.0000   0.0000   0.0000   0.3572
   6.100   1.3096   0.01117   0.00553  -0.1494  0.4264  1.0000  -2.0738   0.0000   0.0000   0.0000   0.3556
   6.200   1.3146   0.01138   0.00568  -0.1483  0.4126  1.0000  -2.1046   0.0000   0.0000   0.0000   0.3542
   6.300   1.3190   0.01162   0.00584  -0.1470  0.3995  1.0000  -2.1341   0.0000   0.0000   0.0000   0.3527
   6.400   1.3236   0.01186   0.00601  -0.1458  0.3852  1.0000  -2.1644   0.0000   0.0000   0.0000   0.3513
   6.500   1.3286   0.01210   0.00619  -0.1447  0.3724  1.0000  -2.1954   0.0000   0.0000   0.0000   0.3499
   6.600   1.3334   0.01235   0.00637  -0.1435  0.3589  1.0000  -2.2262   0.0000   0.0000   0.0000   0.3485
   6.700   1.3389   0.01258   0.00654  -0.1425  0.3475  1.0000  -2.2585   0.0000   0.0000   0.0000   0.3472
   6.800   1.3445   0.01281   0.00672  -0.1415  0.3355  1.0000  -2.2909   0.0000   0.0000   0.0000   0.3458
   6.900   1.3498   0.01306   0.00691  -0.1405  0.3250  1.0000  -2.3231   0.0000   0.0000   0.0000   0.3445
   7.000   1.3559   0.01327   0.00708  -0.1396  0.3141  1.0000  -2.3569   0.0000   0.0000   0.0000   0.3433
   7.200   1.3666   0.01376   0.00747  -0.1376  0.2937  1.0000  -2.4220   0.0000   0.0000   0.0000   0.3407
   7.300   1.3715   0.01403   0.00769  -0.1366  0.2831  1.0000  -2.4536   0.0000   0.0000   0.0000   0.3395
   7.400   1.3771   0.01427   0.00791  -0.1356  0.2738  1.0000  -2.4892   0.0000   0.0000   0.0000   0.3382
   7.500   1.3829   0.01451   0.00811  -0.1348  0.2639  1.0000  -2.5271   0.0000   0.0000   0.0000   0.3370
   7.700   1.3939   0.01503   0.00855  -0.1329  0.2448  1.0000  -2.6016   0.0000   0.0000   0.0000   0.3346
   7.800   1.3989   0.01533   0.00879  -0.1319  0.2349  1.0000  -2.6380   0.0000   0.0000   0.0000   0.3334
   7.900   1.4042   0.01561   0.00902  -0.1310  0.2258  1.0000  -2.6753   0.0000   0.0000   0.0000   0.3323
   8.000   1.4101   0.01586   0.00924  -0.1301  0.2169  1.0000  -2.7142   0.0000   0.0000   0.0000   0.3312
   8.100   1.4143   0.01619   0.00951  -0.1291  0.2078  1.0000  -2.7492   0.0000   0.0000   0.0000   0.3300
   8.200   1.4200   0.01644   0.00974  -0.1282  0.2002  1.0000  -2.7917   0.0000   0.0000   0.0000   0.3288
   8.300   1.4256   0.01671   0.00998  -0.1273  0.1925  1.0000  -2.8346   0.0000   0.0000   0.0000   0.3277
   8.400   1.4300   0.01704   0.01026  -0.1263  0.1847  1.0000  -2.8747   0.0000   0.0000   0.0000   0.3266
   8.500   1.4356   0.01731   0.01051  -0.1255  0.1781  1.0000  -2.9181   0.0000   0.0000   0.0000   0.3255
   8.600   1.4417   0.01756   0.01074  -0.1247  0.1720  1.0000  -2.9674   0.0000   0.0000   0.0000   0.3244
   8.700   1.4467   0.01787   0.01102  -0.1238  0.1654  1.0000  -3.0146   0.0000   0.0000   0.0000   0.3234
   8.800   1.4511   0.01822   0.01133  -0.1228  0.1582  1.0000  -3.0618   0.0000   0.0000   0.0000   0.3223
   8.900   1.4575   0.01846   0.01158  -0.1221  0.1536  1.0000  -3.1190   0.0000   0.0000   0.0000   0.3213
   9.000   1.4631   0.01873   0.01185  -0.1213  0.1486  1.0000  -3.1742   0.0000   0.0000   0.0000   0.3202
   9.100   1.4677   0.01907   0.01216  -0.1204  0.1433  1.0000  -3.2263   0.0000   0.0000   0.0000   0.3192
   9.200   1.4718   0.01945   0.01249  -0.1193  0.1373  1.0000  -3.2764   0.0000   0.0000   0.0000   0.3181
   9.300   1.4774   0.01973   0.01278  -0.1186  0.1329  1.0000  -3.3323   0.0000   0.0000   0.0000   0.3171
   9.400   1.4836   0.01999   0.01305  -0.1179  0.1292  1.0000  -3.3906   0.0000   0.0000   0.0000   0.3161
   9.500   1.4889   0.02030   0.01335  -0.1171  0.1249  1.0000  -3.4462   0.0000   0.0000   0.0000   0.3152
   9.600   1.4933   0.02067   0.01369  -0.1162  0.1203  1.0000  -3.4990   0.0000   0.0000   0.0000   0.3142
   9.700   1.4970   0.02108   0.01407  -0.1151  0.1152  1.0000  -3.5489   0.0000   0.0000   0.0000   0.3131
   9.800   1.5020   0.02141   0.01441  -0.1143  0.1117  1.0000  -3.6041   0.0000   0.0000   0.0000   0.3122
   9.900   1.5082   0.02166   0.01469  -0.1137  0.1094  1.0000  -3.6640   0.0000   0.0000   0.0000   0.3112
  10.000   1.5138   0.02197   0.01500  -0.1129  0.1066  1.0000  -3.7219   0.0000   0.0000   0.0000   0.3103
  10.100   1.5187   0.02232   0.01534  -0.1121  0.1035  1.0000  -3.7778   0.0000   0.0000   0.0000   0.3094
  10.200   1.5229   0.02272   0.01572  -0.1113  0.1001  1.0000  -3.8315   0.0000   0.0000   0.0000   0.3084
  10.300   1.5265   0.02317   0.01615  -0.1103  0.0962  1.0000  -3.8824   0.0000   0.0000   0.0000   0.3075
  10.400   1.5290   0.02369   0.01666  -0.1092  0.0920  1.0000  -3.9284   0.0000   0.0000   0.0000   0.3065
  10.500   1.5356   0.02393   0.01696  -0.1087  0.0907  1.0000  -3.9921   0.0000   0.0000   0.0000   0.3056
  10.600   1.5416   0.02422   0.01728  -0.1081  0.0889  1.0000  -4.0533   0.0000   0.0000   0.0000   0.3048
  10.700   1.5469   0.02456   0.01763  -0.1074  0.0866  1.0000  -4.1123   0.0000   0.0000   0.0000   0.3039
  10.800   1.5515   0.02495   0.01802  -0.1066  0.0842  1.0000  -4.1691   0.0000   0.0000   0.0000   0.3031
  10.900   1.5556   0.02538   0.01845  -0.1058  0.0817  1.0000  -4.2236   0.0000   0.0000   0.0000   0.3022
  11.000   1.5589   0.02588   0.01893  -0.1049  0.0789  1.0000  -4.2750   0.0000   0.0000   0.0000   0.3013
  11.100   1.5607   0.02649   0.01952  -0.1039  0.0756  1.0000  -4.3197   0.0000   0.0000   0.0000   0.3004
  11.200   1.5628   0.02708   0.02013  -0.1028  0.0731  1.0000  -4.3650   0.0000   0.0000   0.0000   0.2994
  11.300   1.5692   0.02735   0.02044  -0.1023  0.0721  1.0000  -4.4302   0.0000   0.0000   0.0000   0.2987
  11.400   1.5751   0.02767   0.02080  -0.1018  0.0709  1.0000  -4.4935   0.0000   0.0000   0.0000   0.2979
  11.500   1.5805   0.02803   0.02118  -0.1012  0.0693  1.0000  -4.5552   0.0000   0.0000   0.0000   0.2971
  11.600   1.5854   0.02843   0.02160  -0.1006  0.0676  1.0000  -4.6147   0.0000   0.0000   0.0000   0.2963
  11.700   1.5895   0.02890   0.02207  -0.0999  0.0658  1.0000  -4.6713   0.0000   0.0000   0.0000   0.2955
  11.800   1.5929   0.02942   0.02259  -0.0991  0.0641  1.0000  -4.7251   0.0000   0.0000   0.0000   0.2947
  11.900   1.5956   0.02999   0.02316  -0.0983  0.0623  1.0000  -4.7763   0.0000   0.0000   0.0000   0.2939
  12.000   1.5976   0.03065   0.02381  -0.0974  0.0602  1.0000  -4.8233   0.0000   0.0000   0.0000   0.2931
  12.100   1.5983   0.03143   0.02461  -0.0964  0.0580  1.0000  -4.8629   0.0000   0.0000   0.0000   0.2923
  12.200   1.6000   0.03211   0.02532  -0.0955  0.0566  1.0000  -4.9081   0.0000   0.0000   0.0000   0.2915
  12.300   1.6056   0.03248   0.02573  -0.0950  0.0561  1.0000  -4.9723   0.0000   0.0000   0.0000   0.2908
  12.400   1.6106   0.03289   0.02619  -0.0945  0.0554  1.0000  -5.0343   0.0000   0.0000   0.0000   0.2901
  12.500   1.6153   0.03334   0.02668  -0.0940  0.0545  1.0000  -5.0947   0.0000   0.0000   0.0000   0.2894
  12.600   1.6197   0.03381   0.02719  -0.0934  0.0536  1.0000  -5.1541   0.0000   0.0000   0.0000   0.2887
  12.700   1.6239   0.03431   0.02772  -0.0928  0.0526  1.0000  -5.2128   0.0000   0.0000   0.0000   0.2880
  12.800   1.6278   0.03485   0.02828  -0.0922  0.0516  1.0000  -5.2702   0.0000   0.0000   0.0000   0.2873
  12.900   1.6311   0.03544   0.02889  -0.0916  0.0506  1.0000  -5.3253   0.0000   0.0000   0.0000   0.2866
  13.000   1.6338   0.03608   0.02955  -0.0910  0.0495  1.0000  -5.3779   0.0000   0.0000   0.0000   0.2859
  13.100   1.6362   0.03677   0.03025  -0.0903  0.0485  1.0000  -5.4304   0.0000   0.0000   0.0000   0.2852
  13.200   1.6381   0.03751   0.03100  -0.0897  0.0474  1.0000  -5.4845   0.0000   0.0000   0.0000   0.2845
  13.300   1.6392   0.03835   0.03185  -0.0889  0.0462  1.0000  -5.5336   0.0000   0.0000   0.0000   0.2839
  13.400   1.6388   0.03934   0.03286  -0.0881  0.0449  1.0000  -5.5739   0.0000   0.0000   0.0000   0.2832
  13.500   1.6365   0.04051   0.03408  -0.0872  0.0436  1.0000  -5.6038   0.0000   0.0000   0.0000   0.2825
  13.600   1.6378   0.04136   0.03498  -0.0866  0.0430  1.0000  -5.6531   0.0000   0.0000   0.0000   0.2819
  13.700   1.6424   0.04188   0.03554  -0.0862  0.0426  1.0000  -5.7222   0.0000   0.0000   0.0000   0.2813
  13.800   1.6468   0.04244   0.03614  -0.0858  0.0421  1.0000  -5.7896   0.0000   0.0000   0.0000   0.2807
  13.900   1.6506   0.04305   0.03679  -0.0854  0.0416  1.0000  -5.8545   0.0000   0.0000   0.0000   0.2801
  14.000   1.6537   0.04373   0.03751  -0.0849  0.0410  1.0000  -5.9158   0.0000   0.0000   0.0000   0.2795
  14.100   1.6565   0.04445   0.03827  -0.0845  0.0403  1.0000  -5.9755   0.0000   0.0000   0.0000   0.2789
  14.200   1.6592   0.04519   0.03904  -0.0841  0.0396  1.0000  -6.0352   0.0000   0.0000   0.0000   0.2784
  14.300   1.6619   0.04594   0.03983  -0.0837  0.0389  1.0000  -6.0950   0.0000   0.0000   0.0000   0.2778
  14.400   1.6644   0.04672   0.04064  -0.0833  0.0382  1.0000  -6.1539   0.0000   0.0000   0.0000   0.2773
  14.500   1.6663   0.04758   0.04152  -0.0828  0.0375  1.0000  -6.2247   0.0000   0.0000   0.0000   0.2768
  14.600   1.6674   0.04852   0.04249  -0.0824  0.0368  1.0000  -6.2986   0.0000   0.0000   0.0000   0.2763
  14.700   1.6681   0.04953   0.04354  -0.0820  0.0361  1.0000  -6.3710   0.0000   0.0000   0.0000   0.2758
  14.800   1.6682   0.05062   0.04465  -0.0816  0.0353  1.0000  -6.4380   0.0000   0.0000   0.0000   0.2753
  14.900   1.6672   0.05186   0.04591  -0.0812  0.0345  1.0000  -6.4955   0.0000   0.0000   0.0000   0.2749
  15.000   1.6643   0.05334   0.04743  -0.0807  0.0337  1.0000  -6.5376   0.0000   0.0000   0.0000   0.2745


