xflr5 v6.61

 Calculated polar for: SG6043

 1 1 Reynolds number fixed          Mach number fixed         

 xtrf =   1.000 (top)        1.000 (bottom)
 Mach =   0.000     Re =     0.100 e 6     Ncrit =   9.000

  alpha     CL        CD       CDp       Cm    Top Xtr Bot Xtr   Cpmin    Chinge    XCp    
 ------- -------- --------- --------- -------- ------- ------- -------- --------- ---------
 -10.000  -0.3222   0.13688   0.13199  -0.0305  1.0000  0.0564  -1.3933   0.0000   0.0000   0.0000   0.1443
  -9.900  -0.3255   0.13672   0.13186  -0.0303  1.0000  0.0568  -1.4145   0.0000   0.0000   0.0000   0.1461
  -9.800  -0.3294   0.13672   0.13188  -0.0302  1.0000  0.0572  -1.4385   0.0000   0.0000   0.0000   0.1479
  -9.700  -0.3339   0.13681   0.13201  -0.0301  1.0000  0.0575  -1.4643   0.0000   0.0000   0.0000   0.1498
  -9.600  -0.3387   0.13694   0.13216  -0.0300  1.0000  0.0578  -1.4909   0.0000   0.0000   0.0000   0.1517
  -9.500  -0.3435   0.13705   0.13231  -0.0299  1.0000  0.0580  -1.5175   0.0000   0.0000   0.0000   0.1536
  -9.400  -0.3482   0.13712   0.13241  -0.0297  1.0000  0.0582  -1.5433   0.0000   0.0000   0.0000   0.1554
  -9.300  -0.3527   0.13713   0.13246  -0.0296  1.0000  0.0583  -1.5678   0.0000   0.0000   0.0000   0.1573
  -9.200  -0.3572   0.13710   0.13246  -0.0294  1.0000  0.0584  -1.5915   0.0000   0.0000   0.0000   0.1591
  -9.100  -0.3613   0.13701   0.13239  -0.0292  1.0000  0.0585  -1.6132   0.0000   0.0000   0.0000   0.1609
  -9.000  -0.3656   0.13687   0.13228  -0.0289  1.0000  0.0586  -1.6344   0.0000   0.0000   0.0000   0.1628
  -8.900  -0.3699   0.13669   0.13213  -0.0286  1.0000  0.0587  -1.6552   0.0000   0.0000   0.0000   0.1647
  -8.800  -0.3743   0.13649   0.13196  -0.0283  1.0000  0.0587  -1.6758   0.0000   0.0000   0.0000   0.1667
  -8.700  -0.3789   0.13626   0.13176  -0.0280  1.0000  0.0588  -1.6962   0.0000   0.0000   0.0000   0.1687
  -8.600  -0.3832   0.13599   0.13152  -0.0276  1.0000  0.0589  -1.7146   0.0000   0.0000   0.0000   0.1707
  -8.500  -0.3558   0.12576   0.12125  -0.0254  1.0000  0.0612  -1.5861   0.0000   0.0000   0.0000   0.1705
  -8.400  -0.3494   0.12391   0.11940  -0.0242  1.0000  0.0623  -1.5352   0.0000   0.0000   0.0000   0.1727
  -8.300  -0.3478   0.12282   0.11832  -0.0233  1.0000  0.0631  -1.5151   0.0000   0.0000   0.0000   0.1748
  -8.200  -0.3476   0.12191   0.11742  -0.0227  1.0000  0.0638  -1.5041   0.0000   0.0000   0.0000   0.1768
  -8.100  -0.3480   0.12108   0.11661  -0.0220  1.0000  0.0644  -1.4980   0.0000   0.0000   0.0000   0.1788
  -8.000  -0.3489   0.12030   0.11585  -0.0215  1.0000  0.0650  -1.4950   0.0000   0.0000   0.0000   0.1807
  -7.900  -0.3501   0.11954   0.11512  -0.0209  1.0000  0.0655  -1.4943   0.0000   0.0000   0.0000   0.1826
  -7.800  -0.3515   0.11881   0.11440  -0.0204  1.0000  0.0661  -1.4950   0.0000   0.0000   0.0000   0.1845
  -7.700  -0.3531   0.11808   0.11369  -0.0199  1.0000  0.0666  -1.4967   0.0000   0.0000   0.0000   0.1864
  -7.600  -0.3549   0.11737   0.11300  -0.0194  1.0000  0.0671  -1.4992   0.0000   0.0000   0.0000   0.1882
  -7.500  -0.3568   0.11667   0.11232  -0.0189  1.0000  0.0677  -1.5025   0.0000   0.0000   0.0000   0.1901
  -7.400  -0.3589   0.11599   0.11166  -0.0184  1.0000  0.0682  -1.5066   0.0000   0.0000   0.0000   0.1919
  -7.300  -0.3612   0.11531   0.11100  -0.0179  1.0000  0.0688  -1.5113   0.0000   0.0000   0.0000   0.1937
  -7.200  -0.3637   0.11465   0.11034  -0.0174  1.0000  0.0693  -1.5169   0.0000   0.0000   0.0000   0.1956
  -7.100  -0.3663   0.11400   0.10972  -0.0169  1.0000  0.0699  -1.5231   0.0000   0.0000   0.0000   0.1974
  -7.000  -0.3692   0.11338   0.10911  -0.0164  1.0000  0.0704  -1.5300   0.0000   0.0000   0.0000   0.1993
  -6.900  -0.3724   0.11277   0.10853  -0.0159  1.0000  0.0709  -1.5377   0.0000   0.0000   0.0000   0.2012
  -6.800  -0.3758   0.11219   0.10797  -0.0154  1.0000  0.0715  -1.5463   0.0000   0.0000   0.0000   0.2032
  -6.700  -0.3796   0.11164   0.10744  -0.0149  1.0000  0.0720  -1.5558   0.0000   0.0000   0.0000   0.2052
  -6.600  -0.3838   0.11112   0.10695  -0.0143  1.0000  0.0725  -1.5664   0.0000   0.0000   0.0000   0.2073
  -6.500  -0.3884   0.11065   0.10650  -0.0137  1.0000  0.0730  -1.5780   0.0000   0.0000   0.0000   0.2095
  -6.400  -0.3936   0.11022   0.10610  -0.0130  1.0000  0.0734  -1.5908   0.0000   0.0000   0.0000   0.2118
  -6.300  -0.3993   0.10984   0.10575  -0.0123  1.0000  0.0738  -1.6047   0.0000   0.0000   0.0000   0.2142
  -6.200  -0.4054   0.10950   0.10543  -0.0116  1.0000  0.0742  -1.6197   0.0000   0.0000   0.0000   0.2167
  -6.100  -0.4114   0.10915   0.10511  -0.0110  1.0000  0.0746  -1.6361   0.0000   0.0000   0.0000   0.2187
  -6.000  -0.4160   0.10871   0.10470  -0.0111  1.0000  0.0752  -1.6555   0.0000   0.0000   0.0000   0.2188
  -5.900  -0.4182   0.10824   0.10425  -0.0125  0.9996  0.0759  -1.6824   0.0000   0.0000   0.0000   0.2157
  -5.800  -0.4063   0.10773   0.10372  -0.0215  0.9953  0.0773  -1.7501   0.0000   0.0000   0.0000   0.1926
  -5.600  -0.3753   0.10504   0.10093  -0.0369  0.9877  0.0783  -1.8335   0.0000   0.0000   0.0000   0.1472
  -5.500  -0.3642   0.10345   0.09929  -0.0408  0.9846  0.0785  -1.8485   0.0000   0.0000   0.0000   0.1333
  -5.400  -0.3600   0.09987   0.09574  -0.0433  0.9824  0.0790  -1.8803   0.0000   0.0000   0.0000   0.1250
  -5.300  -0.3624   0.09647   0.09241  -0.0403  0.9813  0.0799  -1.8477   0.0000   0.0000   0.0000   0.1341
  -5.200  -0.3595   0.09455   0.09051  -0.0382  0.9798  0.0807  -1.7984   0.0000   0.0000   0.0000   0.1391
  -5.100  -0.3541   0.09305   0.08903  -0.0367  0.9782  0.0815  -1.7468   0.0000   0.0000   0.0000   0.1415
  -5.000  -0.3470   0.09172   0.08770  -0.0361  0.9767  0.0825  -1.6984   0.0000   0.0000   0.0000   0.1412
  -4.900  -0.3381   0.09045   0.08642  -0.0364  0.9752  0.0837  -1.6551   0.0000   0.0000   0.0000   0.1375
  -4.800  -0.3316   0.08923   0.08521  -0.0368  0.9730  0.0848  -1.6253   0.0000   0.0000   0.0000   0.1341
  -4.700  -0.3289   0.08809   0.08406  -0.0368  0.9703  0.0858  -1.6088   0.0000   0.0000   0.0000   0.1332
  -4.600  -0.3239   0.08687   0.08284  -0.0375  0.9676  0.0870  -1.5910   0.0000   0.0000   0.0000   0.1293
  -4.500  -0.3168   0.08554   0.08151  -0.0389  0.9650  0.0884  -1.5737   0.0000   0.0000   0.0000   0.1223
  -4.400  -0.3074   0.08407   0.08003  -0.0411  0.9624  0.0903  -1.5577   0.0000   0.0000   0.0000   0.1115
  -4.300  -0.2950   0.08243   0.07837  -0.0443  0.9600  0.0926  -1.5448   0.0000   0.0000   0.0000   0.0948
  -4.200  -0.2350   0.08081   0.07632  -0.0673  0.9562  0.1017  -1.6481   0.0000   0.0000   0.0000  -0.0425
  -4.100  -0.2198   0.07986   0.07523  -0.0707  0.9530  0.1021  -1.6496   0.0000   0.0000   0.0000  -0.0783
  -4.000  -0.2240   0.07476   0.07026  -0.0707  0.9514  0.1036  -1.6647   0.0000   0.0000   0.0000  -0.0720
  -3.900  -0.2234   0.07295   0.06852  -0.0694  0.9491  0.1044  -1.6319   0.0000   0.0000   0.0000  -0.0668
  -3.800  -0.2207   0.07158   0.06720  -0.0683  0.9470  0.1053  -1.5937   0.0000   0.0000   0.0000  -0.0656
  -3.700  -0.2165   0.07047   0.06613  -0.0674  0.9449  0.1064  -1.5516   0.0000   0.0000   0.0000  -0.0676
  -3.600  -0.2100   0.06942   0.06509  -0.0671  0.9428  0.1078  -1.5081   0.0000   0.0000   0.0000  -0.0757
  -3.500  -0.2010   0.06835   0.06401  -0.0673  0.9408  0.1097  -1.4642   0.0000   0.0000   0.0000  -0.0916
  -3.400  -0.1886   0.06717   0.06281  -0.0687  0.9388  0.1123  -1.4226   0.0000   0.0000   0.0000  -0.1208
  -3.300  -0.1270   0.06779   0.06278  -0.0844  0.9361  0.1279  -1.4524   0.0000   0.0000   0.0000  -0.4243
  -3.200  -0.1231   0.06246   0.05760  -0.0859  0.9355  0.1303  -1.4545   0.0000   0.0000   0.0000  -0.4575
  -3.100  -0.1133   0.06075   0.05599  -0.0861  0.9343  0.1321  -1.4190   0.0000   0.0000   0.0000  -0.5206
  -3.000  -0.1146   0.05992   0.05519  -0.0843  0.9303  0.1331  -1.4059   0.0000   0.0000   0.0000  -0.4965
  -2.900  -0.1106   0.05906   0.05436  -0.0835  0.9272  0.1349  -1.3856   0.0000   0.0000   0.0000  -0.5154
  -2.800  -0.1039   0.05831   0.05364  -0.0832  0.9246  0.1380  -1.3605   0.0000   0.0000   0.0000  -0.5612
  -2.700  -0.0726   0.05694   0.05192  -0.0907  0.9224  0.1575  -1.3775   0.0000   0.0000   0.0000  -1.0142
  -2.600  -0.0685   0.05563   0.05075  -0.0895  0.9204  0.1601  -1.3429   0.0000   0.0000   0.0000  -1.0725
  -2.500  -0.0610   0.05490   0.05008  -0.0888  0.9184  0.1643  -1.3074   0.0000   0.0000   0.0000  -1.2241
  -2.400  -0.0325   0.05376   0.04868  -0.0946  0.9166  0.1854  -1.2998   0.0000   0.0000   0.0000  -2.6922
  -2.300  -0.0217   0.05240   0.04741  -0.0948  0.9151  0.1883  -1.2699   0.0000   0.0000   0.0000  -4.1656
  -2.000   0.0873   0.04252   0.03602  -0.1116  0.9134  0.0963  -1.5439   0.0000   0.0000   0.0000   1.5405
  -1.900   0.1189   0.04046   0.03319  -0.1146  0.9128  0.0795  -1.6548   0.0000   0.0000   0.0000   1.2227
  -1.800   0.1392   0.03939   0.03198  -0.1165  0.9118  0.0771  -1.6274   0.0000   0.0000   0.0000   1.0937
  -1.700   0.1609   0.03799   0.03038  -0.1187  0.9111  0.0757  -1.6099   0.0000   0.0000   0.0000   0.9938
  -1.600   0.1564   0.03760   0.02996  -0.1163  0.9055  0.0754  -1.6093   0.0000   0.0000   0.0000   0.9997
  -1.500   0.1678   0.03688   0.02909  -0.1166  0.9028  0.0748  -1.5932   0.0000   0.0000   0.0000   0.9502
  -1.400   0.1812   0.03623   0.02828  -0.1171  0.9005  0.0745  -1.5724   0.0000   0.0000   0.0000   0.9012
  -1.300   0.1959   0.03564   0.02753  -0.1178  0.8983  0.0746  -1.5471   0.0000   0.0000   0.0000   0.8557
  -1.200   0.2115   0.03510   0.02683  -0.1186  0.8963  0.0750  -1.5173   0.0000   0.0000   0.0000   0.8143
  -1.100   0.2281   0.03463   0.02621  -0.1195  0.8944  0.0759  -1.4831   0.0000   0.0000   0.0000   0.7769
  -1.000   0.2455   0.03427   0.02572  -0.1204  0.8926  0.0773  -1.4427   0.0000   0.0000   0.0000   0.7433
  -0.900   0.2637   0.03347   0.02482  -0.1217  0.8913  0.0814  -1.4047   0.0000   0.0000   0.0000   0.7139
  -0.800   0.2817   0.03308   0.02449  -0.1231  0.8898  0.0878  -1.3377   0.0000   0.0000   0.0000   0.6889
  -0.700   0.3008   0.03284   0.02420  -0.1244  0.8885  0.0944  -1.2897   0.0000   0.0000   0.0000   0.6650
  -0.600   0.3207   0.03258   0.02382  -0.1256  0.8874  0.1007  -1.2822   0.0000   0.0000   0.0000   0.6430
  -0.500   0.3188   0.03255   0.02379  -0.1236  0.8822  0.1028  -1.2853   0.0000   0.0000   0.0000   0.6388
  -0.400   0.3259   0.03203   0.02337  -0.1231  0.8787  0.1114  -1.2855   0.0000   0.0000   0.0000   0.6287
  -0.300   0.3368   0.03188   0.02321  -0.1230  0.8756  0.1256  -1.2787   0.0000   0.0000   0.0000   0.6161
  -0.200   0.3498   0.03157   0.02301  -0.1235  0.8730  0.1501  -1.2547   0.0000   0.0000   0.0000   0.6036
  -0.100   0.3647   0.03133   0.02287  -0.1243  0.8707  0.1834  -1.2170   0.0000   0.0000   0.0000   0.5911
   0.000   0.3813   0.03090   0.02266  -0.1253  0.8688  0.2261  -1.1765   0.0000   0.0000   0.0000   0.5788
   0.100   0.4000   0.02962   0.02277  -0.1269  0.8680  0.5604  -1.1340   0.0000   0.0000   0.0000   0.5672
   0.200   0.4023   0.02858   0.02259  -0.1236  0.8659  1.0000  -1.1068   0.0000   0.0000   0.0000   0.5571
   0.300   0.4215   0.02868   0.02246  -0.1249  0.8643  1.0000  -1.0390   0.0000   0.0000   0.0000   0.5459
   0.400   0.4413   0.02880   0.02241  -0.1263  0.8630  1.0000  -0.9659   0.0000   0.0000   0.0000   0.5356
   0.600   0.4440   0.02931   0.02280  -0.1236  0.8523  1.0000  -0.9113   0.0000   0.0000   0.0000   0.5274
   0.700   0.4554   0.02944   0.02282  -0.1237  0.8488  1.0000  -0.8592   0.0000   0.0000   0.0000   0.5206
   0.800   0.4698   0.02953   0.02281  -0.1243  0.8460  1.0000  -0.7984   0.0000   0.0000   0.0000   0.5134
   0.900   0.4861   0.02959   0.02278  -0.1252  0.8437  1.0000  -0.7331   0.0000   0.0000   0.0000   0.5061
   1.000   0.5037   0.02963   0.02272  -0.1262  0.8417  1.0000  -0.6649   0.0000   0.0000   0.0000   0.4990
   1.100   0.5222   0.02965   0.02266  -0.1274  0.8400  1.0000  -0.6625   0.0000   0.0000   0.0000   0.4922
   1.200   0.5416   0.02967   0.02259  -0.1287  0.8386  1.0000  -0.6767   0.0000   0.0000   0.0000   0.4857
   1.300   0.5617   0.02969   0.02254  -0.1301  0.8374  1.0000  -0.6923   0.0000   0.0000   0.0000   0.4796
   1.500   0.5576   0.03043   0.02324  -0.1264  0.8242  1.0000  -0.6931   0.0000   0.0000   0.0000   0.4745
   1.600   0.5717   0.03048   0.02324  -0.1269  0.8212  1.0000  -0.7053   0.0000   0.0000   0.0000   0.4696
   1.700   0.5878   0.03048   0.02318  -0.1277  0.8188  1.0000  -0.7193   0.0000   0.0000   0.0000   0.4646
   1.800   0.6052   0.03045   0.02309  -0.1286  0.8167  1.0000  -0.7344   0.0000   0.0000   0.0000   0.4598
   1.900   0.6238   0.03039   0.02298  -0.1297  0.8151  1.0000  -0.7503   0.0000   0.0000   0.0000   0.4551
   2.000   0.6434   0.03030   0.02285  -0.1309  0.8137  1.0000  -0.7681   0.0000   0.0000   0.0000   0.4505
   2.100   0.6641   0.03018   0.02268  -0.1323  0.8126  1.0000  -0.7870   0.0000   0.0000   0.0000   0.4462
   2.200   0.6854   0.03003   0.02250  -0.1338  0.8115  1.0000  -0.8065   0.0000   0.0000   0.0000   0.4420
   2.500   0.6913   0.03099   0.02342  -0.1299  0.7932  1.0000  -0.8222   0.0000   0.0000   0.0000   0.4343
   2.600   0.7097   0.03083   0.02323  -0.1308  0.7913  1.0000  -0.8412   0.0000   0.0000   0.0000   0.4307
   2.700   0.7296   0.03061   0.02299  -0.1320  0.7898  1.0000  -0.8621   0.0000   0.0000   0.0000   0.4271
   2.800   0.7504   0.03035   0.02271  -0.1332  0.7885  1.0000  -0.8853   0.0000   0.0000   0.0000   0.4237
   2.900   0.7715   0.03007   0.02241  -0.1345  0.7874  1.0000  -0.9087   0.0000   0.0000   0.0000   0.4204
   3.000   0.7927   0.02977   0.02210  -0.1359  0.7863  1.0000  -0.9328   0.0000   0.0000   0.0000   0.4172
   3.300   0.8006   0.03075   0.02308  -0.1321  0.7675  1.0000  -0.9585   0.0000   0.0000   0.0000   0.4105
   3.400   0.8205   0.03041   0.02273  -0.1332  0.7659  1.0000  -0.9838   0.0000   0.0000   0.0000   0.4077
   3.500   0.8414   0.03001   0.02233  -0.1343  0.7646  1.0000  -1.0131   0.0000   0.0000   0.0000   0.4049
   3.600   0.8628   0.02956   0.02188  -0.1355  0.7633  1.0000  -1.0431   0.0000   0.0000   0.0000   0.4022
   3.700   0.8851   0.02903   0.02135  -0.1368  0.7623  1.0000  -1.0755   0.0000   0.0000   0.0000   0.3996
   3.800   0.9085   0.02844   0.02077  -0.1383  0.7615  1.0000  -1.1118   0.0000   0.0000   0.0000   0.3971
   3.900   0.9330   0.02783   0.02020  -0.1399  0.7607  1.0000  -1.1497   0.0000   0.0000   0.0000   0.3948
   4.300   0.9651   0.02795   0.02036  -0.1372  0.7399  1.0000  -1.2253   0.0000   0.0000   0.0000   0.3865
   4.400   0.9897   0.02724   0.01967  -0.1388  0.7387  1.0000  -1.2644   0.0000   0.0000   0.0000   0.3844
   4.500   1.0159   0.02649   0.01894  -0.1407  0.7376  1.0000  -1.3061   0.0000   0.0000   0.0000   0.3825
   4.600   1.0442   0.02571   0.01819  -0.1429  0.7365  1.0000  -1.3552   0.0000   0.0000   0.0000   0.3808
   4.700   1.0745   0.02491   0.01741  -0.1456  0.7353  1.0000  -1.4074   0.0000   0.0000   0.0000   0.3793
   4.900   1.0598   0.02599   0.01851  -0.1393  0.7182  1.0000  -1.4115   0.0000   0.0000   0.0000   0.3750
   5.000   1.0861   0.02519   0.01775  -0.1412  0.7160  1.0000  -1.4593   0.0000   0.0000   0.0000   0.3734
   5.100   1.1159   0.02433   0.01697  -0.1437  0.7138  1.0000  -1.5140   0.0000   0.0000   0.0000   0.3720
   5.200   1.1461   0.02346   0.01612  -0.1463  0.7116  1.0000  -1.5774   0.0000   0.0000   0.0000   0.3707
   5.300   1.1507   0.02357   0.01625  -0.1449  0.7050  1.0000  -1.6016   0.0000   0.0000   0.0000   0.3689
   5.400   1.1505   0.02378   0.01649  -0.1428  0.6972  1.0000  -1.6178   0.0000   0.0000   0.0000   0.3670
   5.500   1.1719   0.02320   0.01594  -0.1440  0.6926  1.0000  -1.6713   0.0000   0.0000   0.0000   0.3656
   5.600   1.1993   0.02243   0.01518  -0.1461  0.6885  1.0000  -1.7354   0.0000   0.0000   0.0000   0.3644
   5.700   1.2302   0.02162   0.01435  -0.1489  0.6845  1.0000  -1.8062   0.0000   0.0000   0.0000   0.3634
   5.800   1.2183   0.02223   0.01502  -0.1449  0.6749  1.0000  -1.8027   0.0000   0.0000   0.0000   0.3612
   5.900   1.2334   0.02190   0.01470  -0.1451  0.6679  1.0000  -1.8466   0.0000   0.0000   0.0000   0.3598
   6.000   1.2586   0.02127   0.01406  -0.1469  0.6619  1.0000  -1.9087   0.0000   0.0000   0.0000   0.3587
   6.100   1.2663   0.02126   0.01412  -0.1461  0.6541  1.0000  -1.9399   0.0000   0.0000   0.0000   0.3572
   6.200   1.2720   0.02128   0.01416  -0.1448  0.6452  1.0000  -1.9678   0.0000   0.0000   0.0000   0.3555
   6.300   1.2916   0.02086   0.01372  -0.1458  0.6372  1.0000  -2.0270   0.0000   0.0000   0.0000   0.3544
   6.400   1.3004   0.02084   0.01370  -0.1451  0.6283  1.0000  -2.0647   0.0000   0.0000   0.0000   0.3529
   6.500   1.3065   0.02086   0.01375  -0.1439  0.6185  1.0000  -2.0975   0.0000   0.0000   0.0000   0.3514
   6.600   1.3272   0.02052   0.01334  -0.1451  0.6092  1.0000  -2.1599   0.0000   0.0000   0.0000   0.3504
   6.700   1.3276   0.02074   0.01360  -0.1431  0.5989  1.0000  -2.1813   0.0000   0.0000   0.0000   0.3487
   6.800   1.3384   0.02067   0.01350  -0.1427  0.5883  1.0000  -2.2241   0.0000   0.0000   0.0000   0.3474
   6.900   1.3479   0.02069   0.01349  -0.1421  0.5776  1.0000  -2.2644   0.0000   0.0000   0.0000   0.3461
   7.000   1.3535   0.02078   0.01359  -0.1409  0.5662  1.0000  -2.2967   0.0000   0.0000   0.0000   0.3446
   7.100   1.3654   0.02078   0.01352  -0.1407  0.5548  1.0000  -2.3425   0.0000   0.0000   0.0000   0.3434
   7.200   1.3684   0.02096   0.01372  -0.1391  0.5427  1.0000  -2.3697   0.0000   0.0000   0.0000   0.3419
   7.300   1.3792   0.02101   0.01367  -0.1388  0.5301  1.0000  -2.4136   0.0000   0.0000   0.0000   0.3406
   7.400   1.3814   0.02122   0.01390  -0.1370  0.5173  1.0000  -2.4404   0.0000   0.0000   0.0000   0.3391
   7.500   1.3897   0.02136   0.01398  -0.1363  0.5040  1.0000  -2.4839   0.0000   0.0000   0.0000   0.3378
   7.600   1.3918   0.02158   0.01420  -0.1346  0.4907  1.0000  -2.5129   0.0000   0.0000   0.0000   0.3363
   7.700   1.3975   0.02179   0.01431  -0.1334  0.4772  1.0000  -2.5506   0.0000   0.0000   0.0000   0.3349
   7.800   1.3996   0.02204   0.01453  -0.1317  0.4636  1.0000  -2.5798   0.0000   0.0000   0.0000   0.3334
   7.900   1.4035   0.02232   0.01472  -0.1303  0.4501  1.0000  -2.6134   0.0000   0.0000   0.0000   0.3320
   8.000   1.4057   0.02262   0.01497  -0.1287  0.4363  1.0000  -2.6429   0.0000   0.0000   0.0000   0.3305
   8.100   1.4085   0.02294   0.01523  -0.1271  0.4228  1.0000  -2.6736   0.0000   0.0000   0.0000   0.3291
   8.200   1.4107   0.02329   0.01549  -0.1256  0.4091  1.0000  -2.7048   0.0000   0.0000   0.0000   0.3277
   8.300   1.4128   0.02367   0.01581  -0.1240  0.3957  1.0000  -2.7374   0.0000   0.0000   0.0000   0.3263
   8.400   1.4149   0.02408   0.01611  -0.1224  0.3823  1.0000  -2.7704   0.0000   0.0000   0.0000   0.3249
   8.500   1.4164   0.02449   0.01649  -0.1208  0.3691  1.0000  -2.8013   0.0000   0.0000   0.0000   0.3235
   8.600   1.4180   0.02495   0.01682  -0.1193  0.3564  1.0000  -2.8333   0.0000   0.0000   0.0000   0.3222
   8.700   1.4195   0.02540   0.01724  -0.1177  0.3435  1.0000  -2.8638   0.0000   0.0000   0.0000   0.3209
   8.800   1.4209   0.02590   0.01762  -0.1162  0.3315  1.0000  -2.8977   0.0000   0.0000   0.0000   0.3195
   8.900   1.4226   0.02638   0.01808  -0.1148  0.3192  1.0000  -2.9325   0.0000   0.0000   0.0000   0.3183
   9.000   1.4238   0.02691   0.01850  -0.1133  0.3079  1.0000  -2.9666   0.0000   0.0000   0.0000   0.3170
   9.100   1.4259   0.02744   0.01898  -0.1120  0.2967  1.0000  -3.0026   0.0000   0.0000   0.0000   0.3158
   9.200   1.4273   0.02796   0.01946  -0.1106  0.2860  1.0000  -3.0368   0.0000   0.0000   0.0000   0.3146
   9.300   1.4301   0.02858   0.01996  -0.1094  0.2761  1.0000  -3.0755   0.0000   0.0000   0.0000   0.3135
   9.400   1.4319   0.02908   0.02051  -0.1081  0.2660  1.0000  -3.1100   0.0000   0.0000   0.0000   0.3123
   9.500   1.4341   0.02967   0.02100  -0.1069  0.2571  1.0000  -3.1471   0.0000   0.0000   0.0000   0.3112
   9.600   1.4373   0.03027   0.02155  -0.1059  0.2481  1.0000  -3.1856   0.0000   0.0000   0.0000   0.3101
   9.700   1.4394   0.03080   0.02210  -0.1047  0.2396  1.0000  -3.2214   0.0000   0.0000   0.0000   0.3090
   9.800   1.4423   0.03144   0.02261  -0.1037  0.2318  1.0000  -3.2642   0.0000   0.0000   0.0000   0.3080
   9.900   1.4464   0.03204   0.02320  -0.1028  0.2240  1.0000  -3.3097   0.0000   0.0000   0.0000   0.3071
  10.000   1.4493   0.03258   0.02378  -0.1017  0.2167  1.0000  -3.3516   0.0000   0.0000   0.0000   0.3060
  10.100   1.4525   0.03319   0.02433  -0.1008  0.2102  1.0000  -3.3961   0.0000   0.0000   0.0000   0.3051
  10.200   1.4598   0.03393   0.02493  -0.1004  0.2030  1.0000  -3.4524   0.0000   0.0000   0.0000   0.3043
  10.300   1.4629   0.03447   0.02557  -0.0994  0.1972  1.0000  -3.4939   0.0000   0.0000   0.0000   0.3033
  10.400   1.4664   0.03503   0.02616  -0.0985  0.1915  1.0000  -3.5383   0.0000   0.0000   0.0000   0.3023
  10.500   1.4703   0.03564   0.02673  -0.0977  0.1862  1.0000  -3.5854   0.0000   0.0000   0.0000   0.3014
  10.600   1.4800   0.03645   0.02739  -0.0976  0.1793  1.0000  -3.6497   0.0000   0.0000   0.0000   0.3008
  10.700   1.4823   0.03701   0.02807  -0.0966  0.1750  1.0000  -3.6886   0.0000   0.0000   0.0000   0.2998
  10.800   1.4855   0.03758   0.02870  -0.0956  0.1702  1.0000  -3.7317   0.0000   0.0000   0.0000   0.2989
  10.900   1.4889   0.03817   0.02930  -0.0948  0.1657  1.0000  -3.7770   0.0000   0.0000   0.0000   0.2980
  11.000   1.4939   0.03884   0.02990  -0.0942  0.1611  1.0000  -3.8292   0.0000   0.0000   0.0000   0.2972
  11.100   1.5045   0.03970   0.03072  -0.0943  0.1554  1.0000  -3.8953   0.0000   0.0000   0.0000   0.2967
  11.200   1.5071   0.04030   0.03145  -0.0933  0.1520  1.0000  -3.9346   0.0000   0.0000   0.0000   0.2958
  11.300   1.5114   0.04094   0.03216  -0.0926  0.1483  1.0000  -3.9796   0.0000   0.0000   0.0000   0.2949
  11.400   1.5162   0.04157   0.03283  -0.0919  0.1446  1.0000  -4.0280   0.0000   0.0000   0.0000   0.2941
  11.500   1.5212   0.04222   0.03346  -0.0913  0.1412  1.0000  -4.0784   0.0000   0.0000   0.0000   0.2933
  11.600   1.5426   0.04345   0.03447  -0.0928  0.1343  1.0000  -4.1809   0.0000   0.0000   0.0000   0.2933
  11.700   1.5431   0.04405   0.03522  -0.0916  0.1325  1.0000  -4.2128   0.0000   0.0000   0.0000   0.2923
  11.800   1.5445   0.04471   0.03601  -0.0905  0.1302  1.0000  -4.2473   0.0000   0.0000   0.0000   0.2914
  11.900   1.5467   0.04541   0.03681  -0.0896  0.1275  1.0000  -4.2850   0.0000   0.0000   0.0000   0.2906
  12.000   1.5494   0.04610   0.03757  -0.0888  0.1247  1.0000  -4.3259   0.0000   0.0000   0.0000   0.2897
  12.100   1.5527   0.04677   0.03828  -0.0880  0.1220  1.0000  -4.3703   0.0000   0.0000   0.0000   0.2890
  12.200   1.5571   0.04744   0.03895  -0.0874  0.1193  1.0000  -4.4197   0.0000   0.0000   0.0000   0.2882
  12.300   1.5652   0.04823   0.03969  -0.0873  0.1164  1.0000  -4.4817   0.0000   0.0000   0.0000   0.2877
  12.400   1.5850   0.04993   0.04137  -0.0886  0.1119  1.0000  -4.5674   0.0000   0.0000   0.0000   0.2876
  12.500   1.5851   0.05066   0.04224  -0.0874  0.1106  1.0000  -4.5959   0.0000   0.0000   0.0000   0.2867
  12.600   1.5857   0.05146   0.04317  -0.0864  0.1091  1.0000  -4.6256   0.0000   0.0000   0.0000   0.2859
  12.700   1.5864   0.05230   0.04413  -0.0854  0.1073  1.0000  -4.6555   0.0000   0.0000   0.0000   0.2851
  12.800   1.5870   0.05317   0.04511  -0.0845  0.1055  1.0000  -4.6856   0.0000   0.0000   0.0000   0.2843
  12.900   1.5879   0.05402   0.04608  -0.0836  0.1036  1.0000  -4.7181   0.0000   0.0000   0.0000   0.2835
  13.000   1.5892   0.05485   0.04697  -0.0828  0.1017  1.0000  -4.7533   0.0000   0.0000   0.0000   0.2828
  13.100   1.5912   0.05564   0.04780  -0.0821  0.0999  1.0000  -4.7927   0.0000   0.0000   0.0000   0.2821
  13.200   1.5943   0.05642   0.04859  -0.0815  0.0980  1.0000  -4.8373   0.0000   0.0000   0.0000   0.2814
  13.300   1.5998   0.05731   0.04947  -0.0812  0.0960  1.0000  -4.8893   0.0000   0.0000   0.0000   0.2809
  13.400   1.6137   0.05937   0.05153  -0.0819  0.0930  1.0000  -4.9540   0.0000   0.0000   0.0000   0.2807
  13.500   1.6147   0.06127   0.05357  -0.0813  0.0916  1.0000  -4.9763   0.0000   0.0000   0.0000   0.2801
  13.600   1.6113   0.06229   0.05473  -0.0802  0.0910  1.0000  -4.9927   0.0000   0.0000   0.0000   0.2793
  13.700   1.6078   0.06339   0.05597  -0.0791  0.0903  1.0000  -5.0083   0.0000   0.0000   0.0000   0.2786
  13.800   1.6042   0.06457   0.05729  -0.0781  0.0895  1.0000  -5.0226   0.0000   0.0000   0.0000   0.2779
  13.900   1.6004   0.06582   0.05868  -0.0771  0.0887  1.0000  -5.0357   0.0000   0.0000   0.0000   0.2772
  14.000   1.5966   0.06713   0.06011  -0.0762  0.0878  1.0000  -5.0481   0.0000   0.0000   0.0000   0.2766
  14.100   1.5926   0.06848   0.06159  -0.0754  0.0869  1.0000  -5.0597   0.0000   0.0000   0.0000   0.2760
  14.200   1.5884   0.06987   0.06310  -0.0747  0.0860  1.0000  -5.0709   0.0000   0.0000   0.0000   0.2754
  14.300   1.5844   0.07127   0.06462  -0.0740  0.0851  1.0000  -5.0827   0.0000   0.0000   0.0000   0.2749
  14.400   1.5805   0.07269   0.06614  -0.0733  0.0841  1.0000  -5.0952   0.0000   0.0000   0.0000   0.2744
  14.500   1.5766   0.07413   0.06767  -0.0728  0.0832  1.0000  -5.1082   0.0000   0.0000   0.0000   0.2740
  14.600   1.5722   0.07562   0.06925  -0.0723  0.0823  1.0000  -5.1189   0.0000   0.0000   0.0000   0.2736
  14.700   1.5679   0.07712   0.07084  -0.0718  0.0814  1.0000  -5.1303   0.0000   0.0000   0.0000   0.2732
  14.800   1.5640   0.07862   0.07243  -0.0714  0.0806  1.0000  -5.1431   0.0000   0.0000   0.0000   0.2729
  14.900   1.5604   0.08013   0.07402  -0.0711  0.0798  1.0000  -5.1574   0.0000   0.0000   0.0000   0.2726
  15.000   1.5569   0.08168   0.07563  -0.0708  0.0790  1.0000  -5.1766   0.0000   0.0000   0.0000   0.2723


