xflr5 v6.61

 Calculated polar for: SG6043

 1 1 Reynolds number fixed          Mach number fixed         

 xtrf =   1.000 (top)        1.000 (bottom)
 Mach =   0.000     Re =     0.300 e 6     Ncrit =   9.000

  alpha     CL        CD       CDp       Cm    Top Xtr Bot Xtr   Cpmin    Chinge    XCp    
 ------- -------- --------- --------- -------- ------- ------- -------- --------- ---------
 -10.000  -0.2521   0.12220   0.11923  -0.0487  0.9877  0.0200  -1.4505   0.0000   0.0000   0.0000   0.0410
  -9.900  -0.2471   0.12084   0.11787  -0.0497  0.9865  0.0202  -1.4429   0.0000   0.0000   0.0000   0.0326
  -9.800  -0.2419   0.11946   0.11649  -0.0509  0.9852  0.0205  -1.4373   0.0000   0.0000   0.0000   0.0233
  -9.700  -0.2365   0.11806   0.11510  -0.0521  0.9840  0.0207  -1.4337   0.0000   0.0000   0.0000   0.0132
  -9.600  -0.2311   0.11665   0.11369  -0.0534  0.9829  0.0210  -1.4322   0.0000   0.0000   0.0000   0.0023
  -9.500  -0.2256   0.11523   0.11227  -0.0547  0.9818  0.0213  -1.4328   0.0000   0.0000   0.0000  -0.0095
  -9.400  -0.2200   0.11380   0.11083  -0.0561  0.9808  0.0217  -1.4359   0.0000   0.0000   0.0000  -0.0222
  -9.300  -0.2144   0.11235   0.10938  -0.0575  0.9799  0.0221  -1.4418   0.0000   0.0000   0.0000  -0.0359
  -9.200  -0.2086   0.11087   0.10790  -0.0590  0.9790  0.0225  -1.4517   0.0000   0.0000   0.0000  -0.0511
  -9.100  -0.2027   0.10936   0.10639  -0.0607  0.9781  0.0230  -1.4689   0.0000   0.0000   0.0000  -0.0681
  -9.000  -0.1967   0.10782   0.10485  -0.0629  0.9773  0.0236  -1.5060   0.0000   0.0000   0.0000  -0.0885
  -8.900  -0.1917   0.10638   0.10341  -0.0663  0.9763  0.0242  -1.5944   0.0000   0.0000   0.0000  -0.1153
  -8.800  -0.1866   0.10492   0.10195  -0.0700  0.9754  0.0245  -1.6817   0.0000   0.0000   0.0000  -0.1450
  -8.700  -0.1800   0.10334   0.10037  -0.0730  0.9747  0.0246  -1.7380   0.0000   0.0000   0.0000  -0.1761
  -8.600  -0.1824   0.10246   0.09950  -0.0726  0.9704  0.0247  -1.7684   0.0000   0.0000   0.0000  -0.1678
  -8.500  -0.1800   0.10122   0.09827  -0.0735  0.9676  0.0247  -1.7967   0.0000   0.0000   0.0000  -0.1783
  -8.400  -0.1759   0.09982   0.09687  -0.0750  0.9654  0.0248  -1.8268   0.0000   0.0000   0.0000  -0.1963
  -8.300  -0.1711   0.09831   0.09536  -0.0767  0.9636  0.0248  -1.8582   0.0000   0.0000   0.0000  -0.2187
  -8.200  -0.1696   0.09516   0.09222  -0.0763  0.9630  0.0253  -1.8544   0.0000   0.0000   0.0000  -0.2206
  -8.100  -0.1618   0.09392   0.09097  -0.0761  0.9624  0.0256  -1.7768   0.0000   0.0000   0.0000  -0.2418
  -8.000  -0.1539   0.09276   0.08982  -0.0764  0.9616  0.0260  -1.7148   0.0000   0.0000   0.0000  -0.2685
  -7.900  -0.1465   0.09159   0.08865  -0.0771  0.9607  0.0264  -1.6719   0.0000   0.0000   0.0000  -0.2996
  -7.800  -0.1393   0.09039   0.08744  -0.0782  0.9598  0.0268  -1.6415   0.0000   0.0000   0.0000  -0.3354
  -7.700  -0.1322   0.08913   0.08618  -0.0796  0.9589  0.0273  -1.6202   0.0000   0.0000   0.0000  -0.3767
  -7.600  -0.1251   0.08782   0.08487  -0.0811  0.9580  0.0278  -1.6061   0.0000   0.0000   0.0000  -0.4247
  -7.500  -0.1177   0.08645   0.08350  -0.0829  0.9572  0.0284  -1.5980   0.0000   0.0000   0.0000  -0.4811
  -7.400  -0.1102   0.08501   0.08206  -0.0848  0.9564  0.0291  -1.5956   0.0000   0.0000   0.0000  -0.5485
  -7.300  -0.1025   0.08351   0.08055  -0.0871  0.9557  0.0299  -1.6003   0.0000   0.0000   0.0000  -0.6306
  -7.200  -0.1100   0.08316   0.08023  -0.0849  0.9497  0.0300  -1.6132   0.0000   0.0000   0.0000  -0.5503
  -7.100  -0.1090   0.08212   0.07919  -0.0855  0.9461  0.0306  -1.6303   0.0000   0.0000   0.0000  -0.5623
  -7.000  -0.1068   0.08089   0.07797  -0.0876  0.9429  0.0316  -1.6788   0.0000   0.0000   0.0000  -0.5980
  -6.900  -0.1033   0.07956   0.07665  -0.0920  0.9394  0.0324  -1.7809   0.0000   0.0000   0.0000  -0.6690
  -6.800  -0.0907   0.07755   0.07463  -0.0978  0.9375  0.0328  -1.8369   0.0000   0.0000   0.0000  -0.8593
  -6.500  -0.0687   0.06945   0.06652  -0.1074  0.9348  0.0338  -1.9227   0.0000   0.0000   0.0000  -1.3553
  -6.400  -0.0790   0.06925   0.06635  -0.1047  0.9279  0.0338  -1.9387   0.0000   0.0000   0.0000  -1.1097
  -6.300  -0.0771   0.06843   0.06553  -0.1037  0.9252  0.0341  -1.8898   0.0000   0.0000   0.0000  -1.1303
  -6.200  -0.0717   0.06752   0.06462  -0.1036  0.9233  0.0344  -1.8345   0.0000   0.0000   0.0000  -1.2300
  -6.100  -0.0647   0.06643   0.06353  -0.1042  0.9217  0.0348  -1.7882   0.0000   0.0000   0.0000  -1.3990
  -6.000  -0.0566   0.06523   0.06233  -0.1053  0.9202  0.0351  -1.7460   0.0000   0.0000   0.0000  -1.6540
  -5.900  -0.0476   0.06392   0.06101  -0.1069  0.9190  0.0355  -1.7092   0.0000   0.0000   0.0000  -2.0474
  -5.800  -0.0377   0.06249   0.05958  -0.1089  0.9178  0.0360  -1.6770   0.0000   0.0000   0.0000  -2.7002
  -5.700  -0.0270   0.06095   0.05802  -0.1114  0.9168  0.0365  -1.6496   0.0000   0.0000   0.0000  -3.9600
  -5.600  -0.0153   0.05926   0.05632  -0.1142  0.9159  0.0371  -1.6269   0.0000   0.0000   0.0000  -7.3730
  -5.500  -0.0025   0.05743   0.05444  -0.1176  0.9151  0.0378  -1.6086   0.0000   0.0000   0.0000  -48.3987
  -5.400   0.0116   0.05540   0.05239  -0.1214  0.9143  0.0387  -1.5980   0.0000   0.0000   0.0000  10.8873
  -5.300   0.0273   0.05316   0.05010  -0.1258  0.9136  0.0398  -1.5968   0.0000   0.0000   0.0000   4.9404
  -5.200   0.0470   0.05041   0.04727  -0.1317  0.9130  0.0415  -1.6258   0.0000   0.0000   0.0000   3.0988
  -5.100   0.0784   0.04793   0.04454  -0.1399  0.9123  0.0437  -1.7093   0.0000   0.0000   0.0000   2.0611
  -5.000   0.0960   0.04606   0.04253  -0.1434  0.9118  0.0439  -1.7114   0.0000   0.0000   0.0000   1.7671
  -4.900   0.0755   0.04673   0.04324  -0.1372  0.9019  0.0439  -1.7254   0.0000   0.0000   0.0000   2.0947
  -4.800   0.0862   0.04528   0.04168  -0.1388  0.8999  0.0440  -1.7239   0.0000   0.0000   0.0000   1.8844
  -4.700   0.0915   0.03944   0.03572  -0.1430  0.8979  0.0454  -1.8308   0.0000   0.0000   0.0000   1.8351
  -4.600   0.1022   0.03817   0.03447  -0.1439  0.8970  0.0460  -1.7752   0.0000   0.0000   0.0000   1.6778
  -4.500   0.1141   0.03714   0.03343  -0.1449  0.8962  0.0466  -1.7288   0.0000   0.0000   0.0000   1.5372
  -4.400   0.1271   0.03614   0.03241  -0.1461  0.8954  0.0472  -1.6854   0.0000   0.0000   0.0000   1.4152
  -4.300   0.1410   0.03510   0.03134  -0.1475  0.8947  0.0481  -1.6471   0.0000   0.0000   0.0000   1.3099
  -4.200   0.1557   0.03403   0.03021  -0.1491  0.8941  0.0491  -1.6147   0.0000   0.0000   0.0000   1.2193
  -4.100   0.1713   0.03288   0.02899  -0.1508  0.8935  0.0504  -1.5908   0.0000   0.0000   0.0000   1.1406
  -4.000   0.1880   0.03163   0.02764  -0.1526  0.8929  0.0521  -1.5793   0.0000   0.0000   0.0000   1.0715
  -3.900   0.2200   0.02334   0.01809  -0.1580  0.8927  0.0334  -2.2273   0.0000   0.0000   0.0000   0.9775
  -3.800   0.2365   0.02285   0.01751  -0.1591  0.8923  0.0331  -2.1847   0.0000   0.0000   0.0000   0.9311
  -3.700   0.2529   0.02102   0.01553  -0.1607  0.8919  0.0323  -2.1971   0.0000   0.0000   0.0000   0.8934
  -3.600   0.2697   0.02025   0.01460  -0.1620  0.8915  0.0325  -2.1590   0.0000   0.0000   0.0000   0.8578
  -3.500   0.2866   0.01932   0.01346  -0.1634  0.8911  0.0335  -2.1238   0.0000   0.0000   0.0000   0.8267
  -3.400   0.3028   0.01818   0.01219  -0.1647  0.8906  0.0342  -2.0878   0.0000   0.0000   0.0000   0.8001
  -3.300   0.3191   0.01755   0.01144  -0.1658  0.8901  0.0341  -2.0355   0.0000   0.0000   0.0000   0.7752
  -3.200   0.3355   0.01710   0.01089  -0.1667  0.8896  0.0337  -1.9777   0.0000   0.0000   0.0000   0.7523
  -3.100   0.3518   0.01665   0.01037  -0.1677  0.8890  0.0335  -1.9157   0.0000   0.0000   0.0000   0.7317
  -3.000   0.3679   0.01618   0.00983  -0.1687  0.8883  0.0333  -1.8542   0.0000   0.0000   0.0000   0.7130
  -2.900   0.3840   0.01568   0.00926  -0.1696  0.8877  0.0332  -1.7949   0.0000   0.0000   0.0000   0.6960
  -2.800   0.3999   0.01515   0.00866  -0.1706  0.8869  0.0333  -1.7381   0.0000   0.0000   0.0000   0.6805
  -2.700   0.3963   0.01515   0.00866  -0.1676  0.8818  0.0333  -1.7240   0.0000   0.0000   0.0000   0.6767
  -2.600   0.4044   0.01480   0.00827  -0.1669  0.8791  0.0335  -1.6852   0.0000   0.0000   0.0000   0.6664
  -2.500   0.4156   0.01438   0.00782  -0.1669  0.8771  0.0338  -1.6392   0.0000   0.0000   0.0000   0.6550
  -2.400   0.4284   0.01396   0.00737  -0.1673  0.8755  0.0344  -1.5865   0.0000   0.0000   0.0000   0.6435
  -2.300   0.4422   0.01360   0.00700  -0.1678  0.8740  0.0352  -1.5260   0.0000   0.0000   0.0000   0.6323
  -2.200   0.4566   0.01332   0.00672  -0.1684  0.8727  0.0364  -1.4591   0.0000   0.0000   0.0000   0.6215
  -2.100   0.4713   0.01308   0.00647  -0.1691  0.8714  0.0379  -1.3921   0.0000   0.0000   0.0000   0.6112
  -2.000   0.4862   0.01286   0.00624  -0.1698  0.8702  0.0400  -1.3545   0.0000   0.0000   0.0000   0.6015
  -1.900   0.5014   0.01266   0.00601  -0.1705  0.8690  0.0428  -1.3202   0.0000   0.0000   0.0000   0.5922
  -1.800   0.5171   0.01230   0.00565  -0.1714  0.8679  0.0491  -1.3017   0.0000   0.0000   0.0000   0.5834
  -1.700   0.5328   0.01198   0.00539  -0.1723  0.8668  0.0668  -1.2830   0.0000   0.0000   0.0000   0.5751
  -1.600   0.5481   0.01177   0.00523  -0.1732  0.8657  0.0884  -1.2369   0.0000   0.0000   0.0000   0.5675
  -1.500   0.5632   0.01164   0.00513  -0.1740  0.8645  0.1042  -1.1762   0.0000   0.0000   0.0000   0.5603
  -1.400   0.5783   0.01149   0.00504  -0.1749  0.8632  0.1252  -1.1138   0.0000   0.0000   0.0000   0.5535
  -1.200   0.5987   0.01129   0.00502  -0.1746  0.8588  0.1810  -1.0114   0.0000   0.0000   0.0000   0.5425
  -1.100   0.6070   0.01114   0.00504  -0.1742  0.8559  0.2293  -0.9648   0.0000   0.0000   0.0000   0.5377
  -1.000   0.6175   0.01092   0.00503  -0.1742  0.8534  0.3031  -0.9136   0.0000   0.0000   0.0000   0.5327
  -0.900   0.6294   0.01060   0.00506  -0.1746  0.8512  0.4199  -0.8575   0.0000   0.0000   0.0000   0.5278
  -0.800   0.6413   0.01032   0.00512  -0.1749  0.8491  0.5431  -0.8008   0.0000   0.0000   0.0000   0.5229
  -0.700   0.6534   0.01015   0.00513  -0.1750  0.8471  0.6160  -0.7440   0.0000   0.0000   0.0000   0.5179
  -0.600   0.6655   0.01000   0.00512  -0.1750  0.8452  0.6678  -0.7371   0.0000   0.0000   0.0000   0.5130
  -0.500   0.6778   0.00987   0.00508  -0.1751  0.8434  0.7069  -0.7457   0.0000   0.0000   0.0000   0.5081
  -0.400   0.6902   0.00976   0.00503  -0.1751  0.8416  0.7395  -0.7543   0.0000   0.0000   0.0000   0.5035
  -0.300   0.7023   0.00967   0.00499  -0.1751  0.8398  0.7708  -0.7631   0.0000   0.0000   0.0000   0.4989
  -0.200   0.7142   0.00958   0.00495  -0.1750  0.8379  0.8043  -0.7720   0.0000   0.0000   0.0000   0.4945
  -0.100   0.7214   0.00953   0.00497  -0.1740  0.8354  0.8368  -0.7785   0.0000   0.0000   0.0000   0.4905
   0.000   0.7233   0.00949   0.00501  -0.1718  0.8320  0.8712  -0.7825   0.0000   0.0000   0.0000   0.4867
   0.100   0.7279   0.00939   0.00498  -0.1701  0.8288  0.9238  -0.7880   0.0000   0.0000   0.0000   0.4827
   0.200   0.7427   0.00931   0.00488  -0.1708  0.8263  1.0000  -0.7990   0.0000   0.0000   0.0000   0.4788
   0.300   0.7549   0.00931   0.00484  -0.1709  0.8237  1.0000  -0.8089   0.0000   0.0000   0.0000   0.4752
   0.400   0.7677   0.00930   0.00478  -0.1712  0.8212  1.0000  -0.8196   0.0000   0.0000   0.0000   0.4717
   0.500   0.7810   0.00928   0.00472  -0.1716  0.8189  1.0000  -0.8306   0.0000   0.0000   0.0000   0.4683
   0.600   0.7946   0.00926   0.00465  -0.1720  0.8166  1.0000  -0.8418   0.0000   0.0000   0.0000   0.4650
   0.700   0.8086   0.00926   0.00460  -0.1726  0.8144  1.0000  -0.8541   0.0000   0.0000   0.0000   0.4617
   0.800   0.8235   0.00927   0.00455  -0.1733  0.8121  1.0000  -0.8677   0.0000   0.0000   0.0000   0.4586
   0.900   0.8331   0.00931   0.00458  -0.1729  0.8091  1.0000  -0.8782   0.0000   0.0000   0.0000   0.4557
   1.000   0.8414   0.00934   0.00461  -0.1723  0.8057  1.0000  -0.8878   0.0000   0.0000   0.0000   0.4528
   1.100   0.8512   0.00936   0.00461  -0.1720  0.8024  1.0000  -0.8992   0.0000   0.0000   0.0000   0.4499
   1.200   0.8622   0.00937   0.00459  -0.1719  0.7991  1.0000  -0.9116   0.0000   0.0000   0.0000   0.4471
   1.300   0.8740   0.00936   0.00456  -0.1720  0.7961  1.0000  -0.9247   0.0000   0.0000   0.0000   0.4444
   1.400   0.8863   0.00936   0.00452  -0.1721  0.7932  1.0000  -0.9382   0.0000   0.0000   0.0000   0.4417
   1.500   0.8992   0.00935   0.00448  -0.1724  0.7905  1.0000  -0.9534   0.0000   0.0000   0.0000   0.4391
   1.600   0.9132   0.00936   0.00444  -0.1729  0.7878  1.0000  -0.9694   0.0000   0.0000   0.0000   0.4366
   1.700   0.9255   0.00939   0.00444  -0.1731  0.7848  1.0000  -0.9856   0.0000   0.0000   0.0000   0.4342
   1.800   0.9331   0.00943   0.00448  -0.1723  0.7811  1.0000  -0.9983   0.0000   0.0000   0.0000   0.4317
   1.900   0.9423   0.00945   0.00450  -0.1719  0.7772  1.0000  -1.0122   0.0000   0.0000   0.0000   0.4293
   2.000   0.9526   0.00946   0.00449  -0.1716  0.7733  1.0000  -1.0274   0.0000   0.0000   0.0000   0.4269
   2.100   0.9637   0.00946   0.00447  -0.1715  0.7697  1.0000  -1.0447   0.0000   0.0000   0.0000   0.4247
   2.200   0.9757   0.00945   0.00443  -0.1716  0.7662  1.0000  -1.0629   0.0000   0.0000   0.0000   0.4224
   2.300   0.9889   0.00946   0.00439  -0.1720  0.7629  1.0000  -1.0830   0.0000   0.0000   0.0000   0.4203
   2.400   1.0013   0.00949   0.00439  -0.1722  0.7594  1.0000  -1.1038   0.0000   0.0000   0.0000   0.4182
   2.500   1.0089   0.00952   0.00444  -0.1714  0.7553  1.0000  -1.1201   0.0000   0.0000   0.0000   0.4160
   2.600   1.0178   0.00955   0.00447  -0.1709  0.7509  1.0000  -1.1400   0.0000   0.0000   0.0000   0.4139
   2.700   1.0277   0.00956   0.00450  -0.1706  0.7466  1.0000  -1.1612   0.0000   0.0000   0.0000   0.4119
   2.800   1.0386   0.00957   0.00448  -0.1704  0.7425  1.0000  -1.1835   0.0000   0.0000   0.0000   0.4099
   2.900   1.0508   0.00958   0.00445  -0.1705  0.7386  1.0000  -1.2074   0.0000   0.0000   0.0000   0.4080
   3.000   1.0638   0.00962   0.00443  -0.1708  0.7346  1.0000  -1.2322   0.0000   0.0000   0.0000   0.4062
   3.100   1.0709   0.00965   0.00449  -0.1700  0.7297  1.0000  -1.2507   0.0000   0.0000   0.0000   0.4042
   3.200   1.0794   0.00968   0.00452  -0.1694  0.7245  1.0000  -1.2707   0.0000   0.0000   0.0000   0.4022
   3.300   1.0891   0.00969   0.00453  -0.1690  0.7194  1.0000  -1.2924   0.0000   0.0000   0.0000   0.4004
   3.400   1.1002   0.00972   0.00452  -0.1689  0.7146  1.0000  -1.3155   0.0000   0.0000   0.0000   0.3986
   3.500   1.1125   0.00975   0.00449  -0.1691  0.7099  1.0000  -1.3401   0.0000   0.0000   0.0000   0.3969
   3.600   1.1201   0.00979   0.00456  -0.1683  0.7045  1.0000  -1.3600   0.0000   0.0000   0.0000   0.3951
   3.700   1.1287   0.00983   0.00460  -0.1677  0.6987  1.0000  -1.3833   0.0000   0.0000   0.0000   0.3933
   3.800   1.1384   0.00986   0.00461  -0.1673  0.6928  1.0000  -1.4083   0.0000   0.0000   0.0000   0.3916
   3.900   1.1491   0.00990   0.00460  -0.1672  0.6871  1.0000  -1.4347   0.0000   0.0000   0.0000   0.3899
   4.000   1.1584   0.00995   0.00464  -0.1667  0.6812  1.0000  -1.4593   0.0000   0.0000   0.0000   0.3883
   4.100   1.1665   0.01000   0.00469  -0.1661  0.6745  1.0000  -1.4826   0.0000   0.0000   0.0000   0.3866
   4.200   1.1756   0.01005   0.00475  -0.1656  0.6676  1.0000  -1.5072   0.0000   0.0000   0.0000   0.3849
   4.300   1.1857   0.01012   0.00476  -0.1653  0.6608  1.0000  -1.5332   0.0000   0.0000   0.0000   0.3833
   4.400   1.1938   0.01018   0.00482  -0.1646  0.6538  1.0000  -1.5578   0.0000   0.0000   0.0000   0.3817
   4.500   1.2020   0.01024   0.00488  -0.1640  0.6460  1.0000  -1.5881   0.0000   0.0000   0.0000   0.3801
   4.600   1.2109   0.01033   0.00491  -0.1635  0.6383  1.0000  -1.6198   0.0000   0.0000   0.0000   0.3785
   4.700   1.2197   0.01041   0.00496  -0.1629  0.6310  1.0000  -1.6515   0.0000   0.0000   0.0000   0.3770
   4.800   1.2276   0.01049   0.00504  -0.1622  0.6229  1.0000  -1.6818   0.0000   0.0000   0.0000   0.3754
   4.900   1.2359   0.01058   0.00510  -0.1616  0.6147  1.0000  -1.7129   0.0000   0.0000   0.0000   0.3739
   5.000   1.2445   0.01070   0.00516  -0.1611  0.6073  1.0000  -1.7449   0.0000   0.0000   0.0000   0.3724
   5.100   1.2524   0.01078   0.00525  -0.1604  0.5992  1.0000  -1.7757   0.0000   0.0000   0.0000   0.3709
   5.200   1.2602   0.01089   0.00532  -0.1597  0.5907  1.0000  -1.8066   0.0000   0.0000   0.0000   0.3695
   5.300   1.2681   0.01102   0.00540  -0.1590  0.5825  1.0000  -1.8377   0.0000   0.0000   0.0000   0.3680
   5.400   1.2756   0.01112   0.00550  -0.1582  0.5733  1.0000  -1.8683   0.0000   0.0000   0.0000   0.3665
   5.500   1.2825   0.01126   0.00558  -0.1574  0.5634  1.0000  -1.8981   0.0000   0.0000   0.0000   0.3651
   5.600   1.2894   0.01140   0.00568  -0.1565  0.5538  1.0000  -1.9281   0.0000   0.0000   0.0000   0.3636
   5.700   1.2961   0.01153   0.00582  -0.1556  0.5429  1.0000  -1.9577   0.0000   0.0000   0.0000   0.3621
   5.900   1.3085   0.01185   0.00605  -0.1536  0.5214  1.0000  -2.0216   0.0000   0.0000   0.0000   0.3592
   6.000   1.3138   0.01203   0.00617  -0.1524  0.5102  1.0000  -2.0527   0.0000   0.0000   0.0000   0.3577
   6.100   1.3195   0.01219   0.00629  -0.1513  0.4999  1.0000  -2.0847   0.0000   0.0000   0.0000   0.3562
   6.200   1.3246   0.01236   0.00642  -0.1502  0.4889  1.0000  -2.1157   0.0000   0.0000   0.0000   0.3548
   6.300   1.3291   0.01256   0.00656  -0.1488  0.4787  1.0000  -2.1454   0.0000   0.0000   0.0000   0.3533
   6.400   1.3344   0.01273   0.00670  -0.1477  0.4672  1.0000  -2.1770   0.0000   0.0000   0.0000   0.3518
   6.600   1.3429   0.01316   0.00702  -0.1450  0.4438  1.0000  -2.2364   0.0000   0.0000   0.0000   0.3489
   6.700   1.3457   0.01343   0.00721  -0.1435  0.4313  1.0000  -2.2635   0.0000   0.0000   0.0000   0.3473
   6.800   1.3503   0.01364   0.00738  -0.1422  0.4183  1.0000  -2.2940   0.0000   0.0000   0.0000   0.3459
   7.000   1.3574   0.01417   0.00778  -0.1395  0.3918  1.0000  -2.3515   0.0000   0.0000   0.0000   0.3430
   7.100   1.3599   0.01449   0.00801  -0.1379  0.3791  1.0000  -2.3783   0.0000   0.0000   0.0000   0.3416
   7.200   1.3649   0.01473   0.00821  -0.1368  0.3660  1.0000  -2.4099   0.0000   0.0000   0.0000   0.3403
   7.400   1.3723   0.01531   0.00870  -0.1342  0.3419  1.0000  -2.4696   0.0000   0.0000   0.0000   0.3376
   7.500   1.3752   0.01565   0.00896  -0.1328  0.3301  1.0000  -2.5006   0.0000   0.0000   0.0000   0.3362
   7.600   1.3801   0.01591   0.00920  -0.1318  0.3189  1.0000  -2.5363   0.0000   0.0000   0.0000   0.3349
   7.700   1.3837   0.01624   0.00946  -0.1305  0.3076  1.0000  -2.5692   0.0000   0.0000   0.0000   0.3337
   7.800   1.3883   0.01653   0.00971  -0.1295  0.2974  1.0000  -2.6043   0.0000   0.0000   0.0000   0.3324
   7.900   1.3927   0.01684   0.00998  -0.1284  0.2864  1.0000  -2.6391   0.0000   0.0000   0.0000   0.3312
   8.000   1.3962   0.01719   0.01027  -0.1272  0.2765  1.0000  -2.6719   0.0000   0.0000   0.0000   0.3299
   8.100   1.4012   0.01747   0.01053  -0.1262  0.2664  1.0000  -2.7086   0.0000   0.0000   0.0000   0.3288
   8.200   1.4044   0.01785   0.01084  -0.1250  0.2565  1.0000  -2.7411   0.0000   0.0000   0.0000   0.3275
   8.300   1.4091   0.01816   0.01113  -0.1240  0.2473  1.0000  -2.7813   0.0000   0.0000   0.0000   0.3264
   8.400   1.4133   0.01850   0.01143  -0.1229  0.2375  1.0000  -2.8203   0.0000   0.0000   0.0000   0.3252
   8.500   1.4162   0.01892   0.01177  -0.1217  0.2283  1.0000  -2.8562   0.0000   0.0000   0.0000   0.3240
   8.600   1.4218   0.01920   0.01205  -0.1209  0.2196  1.0000  -2.8991   0.0000   0.0000   0.0000   0.3230
   8.700   1.4253   0.01960   0.01240  -0.1198  0.2107  1.0000  -2.9406   0.0000   0.0000   0.0000   0.3218
   8.800   1.4287   0.02000   0.01275  -0.1187  0.2026  1.0000  -2.9824   0.0000   0.0000   0.0000   0.3207
   8.900   1.4338   0.02032   0.01306  -0.1178  0.1949  1.0000  -3.0295   0.0000   0.0000   0.0000   0.3197
   9.000   1.4373   0.02073   0.01343  -0.1167  0.1871  1.0000  -3.0719   0.0000   0.0000   0.0000   0.3186
   9.100   1.4405   0.02117   0.01384  -0.1156  0.1798  1.0000  -3.1158   0.0000   0.0000   0.0000   0.3175
   9.200   1.4463   0.02147   0.01415  -0.1149  0.1736  1.0000  -3.1707   0.0000   0.0000   0.0000   0.3165
   9.300   1.4505   0.02186   0.01452  -0.1140  0.1672  1.0000  -3.2208   0.0000   0.0000   0.0000   0.3154
   9.400   1.4534   0.02233   0.01494  -0.1129  0.1610  1.0000  -3.2664   0.0000   0.0000   0.0000   0.3144
   9.500   1.4573   0.02274   0.01534  -0.1119  0.1556  1.0000  -3.3154   0.0000   0.0000   0.0000   0.3133
   9.600   1.4628   0.02306   0.01569  -0.1112  0.1509  1.0000  -3.3703   0.0000   0.0000   0.0000   0.3124
   9.700   1.4671   0.02346   0.01608  -0.1103  0.1460  1.0000  -3.4216   0.0000   0.0000   0.0000   0.3114
   9.800   1.4705   0.02393   0.01651  -0.1093  0.1411  1.0000  -3.4696   0.0000   0.0000   0.0000   0.3104
   9.900   1.4726   0.02449   0.01703  -0.1082  0.1357  1.0000  -3.5128   0.0000   0.0000   0.0000   0.3094
  10.000   1.4778   0.02485   0.01742  -0.1075  0.1323  1.0000  -3.5675   0.0000   0.0000   0.0000   0.3085
  10.100   1.4832   0.02519   0.01779  -0.1068  0.1287  1.0000  -3.6233   0.0000   0.0000   0.0000   0.3076
  10.200   1.4876   0.02560   0.01821  -0.1060  0.1249  1.0000  -3.6756   0.0000   0.0000   0.0000   0.3066
  10.300   1.4910   0.02609   0.01867  -0.1051  0.1210  1.0000  -3.7251   0.0000   0.0000   0.0000   0.3057
  10.400   1.4934   0.02666   0.01921  -0.1041  0.1168  1.0000  -3.7704   0.0000   0.0000   0.0000   0.3048
  10.500   1.4944   0.02735   0.01987  -0.1029  0.1125  1.0000  -3.8092   0.0000   0.0000   0.0000   0.3038
  10.600   1.5008   0.02763   0.02021  -0.1024  0.1104  1.0000  -3.8700   0.0000   0.0000   0.0000   0.3029
  10.700   1.5062   0.02800   0.02062  -0.1018  0.1078  1.0000  -3.9270   0.0000   0.0000   0.0000   0.3021
  10.800   1.5106   0.02843   0.02110  -0.1010  0.1050  1.0000  -3.9806   0.0000   0.0000   0.0000   0.3013
  10.900   1.5143   0.02893   0.02160  -0.1003  0.1021  1.0000  -4.0320   0.0000   0.0000   0.0000   0.3004
  11.000   1.5173   0.02949   0.02214  -0.0994  0.0992  1.0000  -4.0806   0.0000   0.0000   0.0000   0.2995
  11.100   1.5190   0.03017   0.02280  -0.0985  0.0960  1.0000  -4.1235   0.0000   0.0000   0.0000   0.2987
  11.200   1.5181   0.03107   0.02369  -0.0972  0.0925  1.0000  -4.1543   0.0000   0.0000   0.0000   0.2977
  11.300   1.5235   0.03146   0.02413  -0.0967  0.0910  1.0000  -4.2123   0.0000   0.0000   0.0000   0.2969
  11.400   1.5289   0.03185   0.02456  -0.0961  0.0892  1.0000  -4.2711   0.0000   0.0000   0.0000   0.2962
  11.500   1.5338   0.03228   0.02504  -0.0955  0.0872  1.0000  -4.3277   0.0000   0.0000   0.0000   0.2954
  11.600   1.5382   0.03276   0.02555  -0.0949  0.0851  1.0000  -4.3829   0.0000   0.0000   0.0000   0.2946
  11.700   1.5419   0.03330   0.02610  -0.0942  0.0830  1.0000  -4.4355   0.0000   0.0000   0.0000   0.2939
  11.800   1.5448   0.03391   0.02671  -0.0935  0.0810  1.0000  -4.4848   0.0000   0.0000   0.0000   0.2931
  11.900   1.5466   0.03461   0.02741  -0.0927  0.0790  1.0000  -4.5298   0.0000   0.0000   0.0000   0.2923
  12.000   1.5472   0.03544   0.02824  -0.0918  0.0767  1.0000  -4.5682   0.0000   0.0000   0.0000   0.2915
  12.100   1.5462   0.03648   0.02929  -0.0908  0.0742  1.0000  -4.5972   0.0000   0.0000   0.0000   0.2907
  12.200   1.5488   0.03718   0.03002  -0.0901  0.0728  1.0000  -4.6436   0.0000   0.0000   0.0000   0.2900
  12.300   1.5540   0.03762   0.03051  -0.0896  0.0719  1.0000  -4.7031   0.0000   0.0000   0.0000   0.2893
  12.400   1.5586   0.03811   0.03106  -0.0891  0.0707  1.0000  -4.7600   0.0000   0.0000   0.0000   0.2886
  12.500   1.5627   0.03866   0.03165  -0.0886  0.0694  1.0000  -4.8149   0.0000   0.0000   0.0000   0.2879
  12.600   1.5665   0.03924   0.03227  -0.0881  0.0680  1.0000  -4.8688   0.0000   0.0000   0.0000   0.2873
  12.700   1.5701   0.03984   0.03290  -0.0876  0.0666  1.0000  -4.9223   0.0000   0.0000   0.0000   0.2866
  12.800   1.5736   0.04046   0.03358  -0.0870  0.0653  1.0000  -4.9752   0.0000   0.0000   0.0000   0.2859
  12.900   1.5763   0.04116   0.03429  -0.0865  0.0640  1.0000  -5.0254   0.0000   0.0000   0.0000   0.2853
  13.000   1.5783   0.04193   0.03508  -0.0859  0.0627  1.0000  -5.0721   0.0000   0.0000   0.0000   0.2847
  13.100   1.5795   0.04279   0.03595  -0.0853  0.0613  1.0000  -5.1149   0.0000   0.0000   0.0000   0.2840
  13.200   1.5797   0.04378   0.03695  -0.0846  0.0599  1.0000  -5.1516   0.0000   0.0000   0.0000   0.2834
  13.300   1.5787   0.04494   0.03813  -0.0839  0.0583  1.0000  -5.1802   0.0000   0.0000   0.0000   0.2828
  13.400   1.5778   0.04617   0.03939  -0.0831  0.0567  1.0000  -5.2061   0.0000   0.0000   0.0000   0.2821
  13.500   1.5819   0.04676   0.04004  -0.0828  0.0562  1.0000  -5.2626   0.0000   0.0000   0.0000   0.2816
  13.600   1.5856   0.04740   0.04073  -0.0824  0.0555  1.0000  -5.3185   0.0000   0.0000   0.0000   0.2810
  13.700   1.5890   0.04807   0.04146  -0.0820  0.0547  1.0000  -5.3779   0.0000   0.0000   0.0000   0.2804
  13.800   1.5922   0.04879   0.04223  -0.0816  0.0538  1.0000  -5.4360   0.0000   0.0000   0.0000   0.2799
  13.900   1.5952   0.04954   0.04302  -0.0813  0.0528  1.0000  -5.4930   0.0000   0.0000   0.0000   0.2793
  14.000   1.5978   0.05033   0.04386  -0.0809  0.0519  1.0000  -5.5486   0.0000   0.0000   0.0000   0.2788
  14.100   1.6000   0.05118   0.04475  -0.0805  0.0509  1.0000  -5.6020   0.0000   0.0000   0.0000   0.2783
  14.200   1.6019   0.05206   0.04567  -0.0802  0.0500  1.0000  -5.6546   0.0000   0.0000   0.0000   0.2778
  14.300   1.6037   0.05297   0.04661  -0.0799  0.0491  1.0000  -5.7066   0.0000   0.0000   0.0000   0.2773
  14.400   1.6052   0.05393   0.04759  -0.0795  0.0483  1.0000  -5.7566   0.0000   0.0000   0.0000   0.2769
  14.500   1.6060   0.05497   0.04866  -0.0792  0.0474  1.0000  -5.8032   0.0000   0.0000   0.0000   0.2764
  14.600   1.6059   0.05615   0.04986  -0.0789  0.0465  1.0000  -5.8438   0.0000   0.0000   0.0000   0.2760
  14.700   1.6050   0.05745   0.05117  -0.0785  0.0456  1.0000  -5.8787   0.0000   0.0000   0.0000   0.2756
  14.800   1.6033   0.05889   0.05264  -0.0781  0.0445  1.0000  -5.9059   0.0000   0.0000   0.0000   0.2752
  14.900   1.6004   0.06060   0.05440  -0.0775  0.0431  1.0000  -5.9287   0.0000   0.0000   0.0000   0.2747
  15.000   1.6029   0.06149   0.05535  -0.0774  0.0428  1.0000  -6.0075   0.0000   0.0000   0.0000   0.2743


