xflr5 v6.61

 Calculated polar for: SG6043

 1 1 Reynolds number fixed          Mach number fixed         

 xtrf =   1.000 (top)        1.000 (bottom)
 Mach =   0.000     Re =     0.500 e 6     Ncrit =   9.000

  alpha     CL        CD       CDp       Cm    Top Xtr Bot Xtr   Cpmin    Chinge    XCp    
 ------- -------- --------- --------- -------- ------- ------- -------- --------- ---------
 -10.000  -0.1935   0.11160   0.10918  -0.0677  0.9805  0.0137  -1.6795   0.0000   0.0000   0.0000  -0.1223
  -9.900  -0.1874   0.11029   0.10787  -0.0687  0.9799  0.0138  -1.6502   0.0000   0.0000   0.0000  -0.1398
  -9.800  -0.1812   0.10897   0.10655  -0.0698  0.9793  0.0139  -1.6250   0.0000   0.0000   0.0000  -0.1592
  -9.700  -0.1749   0.10764   0.10522  -0.0711  0.9787  0.0140  -1.6032   0.0000   0.0000   0.0000  -0.1807
  -9.600  -0.1685   0.10629   0.10387  -0.0724  0.9782  0.0141  -1.5847   0.0000   0.0000   0.0000  -0.2046
  -9.500  -0.1620   0.10493   0.10251  -0.0737  0.9776  0.0142  -1.5691   0.0000   0.0000   0.0000  -0.2310
  -9.400  -0.1555   0.10355   0.10113  -0.0752  0.9771  0.0144  -1.5562   0.0000   0.0000   0.0000  -0.2601
  -9.300  -0.1489   0.10216   0.09973  -0.0767  0.9766  0.0146  -1.5458   0.0000   0.0000   0.0000  -0.2923
  -9.200  -0.1423   0.10075   0.09832  -0.0782  0.9762  0.0147  -1.5382   0.0000   0.0000   0.0000  -0.3279
  -9.100  -0.1357   0.09933   0.09689  -0.0797  0.9757  0.0150  -1.5331   0.0000   0.0000   0.0000  -0.3676
  -9.000  -0.1290   0.09789   0.09546  -0.0813  0.9753  0.0152  -1.5307   0.0000   0.0000   0.0000  -0.4119
  -8.900  -0.1222   0.09644   0.09400  -0.0830  0.9749  0.0155  -1.5313   0.0000   0.0000   0.0000  -0.4619
  -8.800  -0.1153   0.09494   0.09251  -0.0847  0.9746  0.0158  -1.5352   0.0000   0.0000   0.0000  -0.5195
  -8.700  -0.1193   0.09422   0.09180  -0.0832  0.9697  0.0159  -1.5456   0.0000   0.0000   0.0000  -0.4801
  -8.600  -0.1159   0.09294   0.09052  -0.0840  0.9674  0.0162  -1.5568   0.0000   0.0000   0.0000  -0.5076
  -8.500  -0.1114   0.09152   0.08910  -0.0852  0.9656  0.0167  -1.5753   0.0000   0.0000   0.0000  -0.5487
  -8.400  -0.1064   0.08990   0.08748  -0.0869  0.9640  0.0173  -1.6217   0.0000   0.0000   0.0000  -0.6022
  -8.300  -0.1021   0.08773   0.08531  -0.0912  0.9618  0.0182  -1.8049   0.0000   0.0000   0.0000  -0.6794
  -8.200  -0.0955   0.08603   0.08362  -0.0935  0.9606  0.0183  -1.8641   0.0000   0.0000   0.0000  -0.7681
  -8.100  -0.0889   0.08431   0.08190  -0.0958  0.9595  0.0184  -1.9104   0.0000   0.0000   0.0000  -0.8695
  -8.000  -0.0821   0.08253   0.08012  -0.0981  0.9586  0.0184  -1.9542   0.0000   0.0000   0.0000  -0.9897
  -7.900  -0.0821   0.07933   0.07693  -0.0998  0.9577  0.0188  -2.0389   0.0000   0.0000   0.0000  -1.0113
  -7.800  -0.0745   0.07826   0.07586  -0.1006  0.9572  0.0191  -1.9716   0.0000   0.0000   0.0000  -1.1489
  -7.700  -0.0662   0.07730   0.07490  -0.1015  0.9568  0.0193  -1.9019   0.0000   0.0000   0.0000  -1.3377
  -7.600  -0.0577   0.07628   0.07387  -0.1026  0.9563  0.0196  -1.8433   0.0000   0.0000   0.0000  -1.5901
  -7.500  -0.0492   0.07514   0.07274  -0.1040  0.9558  0.0198  -1.7982   0.0000   0.0000   0.0000  -1.9342
  -7.400  -0.0535   0.07465   0.07226  -0.1024  0.9504  0.0199  -1.7950   0.0000   0.0000   0.0000  -1.7278
  -7.300  -0.0512   0.07374   0.07135  -0.1025  0.9471  0.0202  -1.7775   0.0000   0.0000   0.0000  -1.8188
  -7.200  -0.0462   0.07261   0.07023  -0.1035  0.9450  0.0205  -1.7588   0.0000   0.0000   0.0000  -2.0623
  -7.100  -0.0405   0.07137   0.06899  -0.1048  0.9432  0.0208  -1.7440   0.0000   0.0000   0.0000  -2.4202
  -7.000  -0.0344   0.07004   0.06766  -0.1064  0.9416  0.0212  -1.7339   0.0000   0.0000   0.0000  -2.9318
  -6.900  -0.0282   0.06863   0.06625  -0.1081  0.9401  0.0215  -1.7287   0.0000   0.0000   0.0000  -3.6907
  -6.800  -0.0215   0.06707   0.06469  -0.1102  0.9388  0.0220  -1.7285   0.0000   0.0000   0.0000  -5.0300
  -6.700  -0.0124   0.06521   0.06282  -0.1131  0.9377  0.0226  -1.7355   0.0000   0.0000   0.0000  -9.1259
  -6.600   0.0000   0.06256   0.06016  -0.1187  0.9365  0.0238  -1.8047   0.0000   0.0000   0.0000  5248.5236
  -6.500   0.0204   0.05929   0.05687  -0.1279  0.9352  0.0246  -1.9224   0.0000   0.0000   0.0000   6.6708
  -6.400   0.0368   0.05654   0.05409  -0.1341  0.9344  0.0247  -1.9606   0.0000   0.0000   0.0000   3.9713
  -6.300   0.0315   0.05570   0.05325  -0.1329  0.9276  0.0247  -1.9857   0.0000   0.0000   0.0000   4.5618
  -6.200   0.0418   0.05323   0.05074  -0.1370  0.9247  0.0248  -2.0270   0.0000   0.0000   0.0000   3.5922
  -6.100   0.0435   0.04843   0.04592  -0.1419  0.9219  0.0255  -2.1402   0.0000   0.0000   0.0000   3.5739
  -6.000   0.0533   0.04762   0.04510  -0.1429  0.9208  0.0258  -2.0550   0.0000   0.0000   0.0000   2.9834
  -5.900   0.0648   0.04655   0.04401  -0.1447  0.9197  0.0261  -1.9844   0.0000   0.0000   0.0000   2.5251
  -5.800   0.0773   0.04536   0.04280  -0.1468  0.9187  0.0264  -1.9212   0.0000   0.0000   0.0000   2.1826
  -5.700   0.0909   0.04397   0.04138  -0.1493  0.9176  0.0268  -1.8687   0.0000   0.0000   0.0000   1.9224
  -5.600   0.1050   0.04243   0.03980  -0.1522  0.9166  0.0272  -1.8246   0.0000   0.0000   0.0000   1.7236
  -5.500   0.1200   0.04075   0.03807  -0.1553  0.9155  0.0278  -1.7892   0.0000   0.0000   0.0000   1.5653
  -5.400   0.1358   0.03890   0.03615  -0.1587  0.9144  0.0285  -1.7644   0.0000   0.0000   0.0000   1.4370
  -5.300   0.1524   0.03684   0.03400  -0.1622  0.9131  0.0294  -1.7542   0.0000   0.0000   0.0000   1.3309
  -5.200   0.1707   0.03446   0.03148  -0.1660  0.9118  0.0309  -1.7756   0.0000   0.0000   0.0000   1.2375
  -5.100   0.1859   0.03354   0.03036  -0.1672  0.9091  0.0327  -1.8256   0.0000   0.0000   0.0000   1.1629
  -5.000   0.1911   0.03264   0.02936  -0.1669  0.9054  0.0329  -1.8427   0.0000   0.0000   0.0000   1.1361
  -4.900   0.2003   0.03145   0.02805  -0.1676  0.9026  0.0329  -1.8577   0.0000   0.0000   0.0000   1.0987
  -4.800   0.2110   0.03019   0.02666  -0.1685  0.9003  0.0330  -1.8695   0.0000   0.0000   0.0000   1.0600
  -4.600   0.2309   0.01943   0.01511  -0.1734  0.8954  0.0237  -2.4643   0.0000   0.0000   0.0000   1.0117
  -4.500   0.2445   0.01730   0.01268  -0.1746  0.8938  0.0228  -2.5705   0.0000   0.0000   0.0000   0.9743
  -4.400   0.2588   0.01608   0.01124  -0.1756  0.8924  0.0228  -2.6052   0.0000   0.0000   0.0000   0.9378
  -4.300   0.2732   0.01527   0.01028  -0.1764  0.8910  0.0230  -2.5909   0.0000   0.0000   0.0000   0.9045
  -4.200   0.2876   0.01464   0.00951  -0.1772  0.8896  0.0232  -2.5542   0.0000   0.0000   0.0000   0.8743
  -4.100   0.3021   0.01410   0.00886  -0.1779  0.8881  0.0233  -2.5055   0.0000   0.0000   0.0000   0.8468
  -4.000   0.3153   0.01366   0.00832  -0.1784  0.8864  0.0234  -2.4525   0.0000   0.0000   0.0000   0.8232
  -3.900   0.3238   0.01332   0.00792  -0.1779  0.8843  0.0235  -2.4068   0.0000   0.0000   0.0000   0.8063
  -3.800   0.3333   0.01298   0.00753  -0.1776  0.8821  0.0236  -2.3560   0.0000   0.0000   0.0000   0.7892
  -3.700   0.3437   0.01276   0.00726  -0.1774  0.8799  0.0239  -2.2921   0.0000   0.0000   0.0000   0.7723
  -3.600   0.3547   0.01262   0.00708  -0.1773  0.8778  0.0243  -2.2184   0.0000   0.0000   0.0000   0.7558
  -3.500   0.3661   0.01252   0.00693  -0.1773  0.8758  0.0246  -2.1411   0.0000   0.0000   0.0000   0.7398
  -3.400   0.3779   0.01242   0.00679  -0.1774  0.8738  0.0248  -2.0642   0.0000   0.0000   0.0000   0.7246
  -3.300   0.3897   0.01201   0.00633  -0.1776  0.8718  0.0249  -2.0080   0.0000   0.0000   0.0000   0.7104
  -3.100   0.4149   0.01134   0.00555  -0.1781  0.8682  0.0248  -1.8856   0.0000   0.0000   0.0000   0.6837
  -3.000   0.4279   0.01101   0.00518  -0.1785  0.8665  0.0248  -1.8230   0.0000   0.0000   0.0000   0.6712
  -2.900   0.4413   0.01074   0.00486  -0.1790  0.8646  0.0248  -1.7572   0.0000   0.0000   0.0000   0.6594
  -2.800   0.4550   0.01048   0.00457  -0.1795  0.8626  0.0248  -1.6913   0.0000   0.0000   0.0000   0.6482
  -2.700   0.4657   0.01022   0.00428  -0.1795  0.8606  0.0250  -1.6368   0.0000   0.0000   0.0000   0.6387
  -2.600   0.4754   0.00999   0.00402  -0.1792  0.8585  0.0253  -1.5842   0.0000   0.0000   0.0000   0.6300
  -2.500   0.4857   0.00978   0.00379  -0.1790  0.8563  0.0257  -1.5287   0.0000   0.0000   0.0000   0.6214
  -2.400   0.4965   0.00961   0.00360  -0.1789  0.8541  0.0263  -1.4698   0.0000   0.0000   0.0000   0.6130
  -2.300   0.5077   0.00947   0.00345  -0.1789  0.8520  0.0271  -1.4225   0.0000   0.0000   0.0000   0.6049
  -2.200   0.5190   0.00936   0.00333  -0.1789  0.8499  0.0282  -1.3810   0.0000   0.0000   0.0000   0.5970
  -2.100   0.5306   0.00928   0.00323  -0.1789  0.8478  0.0295  -1.3397   0.0000   0.0000   0.0000   0.5894
  -2.000   0.5424   0.00919   0.00313  -0.1790  0.8459  0.0314  -1.3014   0.0000   0.0000   0.0000   0.5820
  -1.900   0.5548   0.00906   0.00298  -0.1792  0.8439  0.0355  -1.2741   0.0000   0.0000   0.0000   0.5748
  -1.800   0.5676   0.00889   0.00287  -0.1796  0.8420  0.0508  -1.2481   0.0000   0.0000   0.0000   0.5680
  -1.700   0.5805   0.00878   0.00281  -0.1800  0.8399  0.0708  -1.2029   0.0000   0.0000   0.0000   0.5615
  -1.600   0.5936   0.00875   0.00277  -0.1804  0.8377  0.0816  -1.1465   0.0000   0.0000   0.0000   0.5551
  -1.500   0.6048   0.00869   0.00276  -0.1804  0.8356  0.0943  -1.0924   0.0000   0.0000   0.0000   0.5494
  -1.400   0.6146   0.00865   0.00274  -0.1801  0.8335  0.1029  -1.0405   0.0000   0.0000   0.0000   0.5440
  -1.300   0.6248   0.00858   0.00273  -0.1799  0.8313  0.1194  -0.9875   0.0000   0.0000   0.0000   0.5388
  -1.200   0.6354   0.00850   0.00271  -0.1799  0.8289  0.1409  -0.9338   0.0000   0.0000   0.0000   0.5337
  -1.100   0.6463   0.00838   0.00269  -0.1799  0.8265  0.1741  -0.8797   0.0000   0.0000   0.0000   0.5288
  -1.000   0.6575   0.00825   0.00268  -0.1800  0.8241  0.2190  -0.8246   0.0000   0.0000   0.0000   0.5241
  -0.900   0.6689   0.00808   0.00267  -0.1801  0.8217  0.2800  -0.7695   0.0000   0.0000   0.0000   0.5195
  -0.800   0.6807   0.00789   0.00266  -0.1804  0.8194  0.3546  -0.7450   0.0000   0.0000   0.0000   0.5151
  -0.700   0.6929   0.00769   0.00268  -0.1808  0.8171  0.4413  -0.7529   0.0000   0.0000   0.0000   0.5109
  -0.600   0.7051   0.00754   0.00272  -0.1811  0.8147  0.5253  -0.7611   0.0000   0.0000   0.0000   0.5066
  -0.500   0.7176   0.00747   0.00277  -0.1814  0.8121  0.5851  -0.7697   0.0000   0.0000   0.0000   0.5024
  -0.400   0.7279   0.00741   0.00281  -0.1812  0.8099  0.6255  -0.7772   0.0000   0.0000   0.0000   0.4985
  -0.300   0.7373   0.00734   0.00284  -0.1807  0.8075  0.6581  -0.7846   0.0000   0.0000   0.0000   0.4946
  -0.200   0.7470   0.00730   0.00286  -0.1804  0.8049  0.6844  -0.7923   0.0000   0.0000   0.0000   0.4908
  -0.100   0.7570   0.00726   0.00287  -0.1800  0.8022  0.7071  -0.8006   0.0000   0.0000   0.0000   0.4871
   0.000   0.7671   0.00722   0.00288  -0.1797  0.7995  0.7292  -0.8092   0.0000   0.0000   0.0000   0.4834
   0.100   0.7771   0.00718   0.00288  -0.1794  0.7968  0.7535  -0.8177   0.0000   0.0000   0.0000   0.4798
   0.200   0.7873   0.00714   0.00289  -0.1791  0.7940  0.7796  -0.8266   0.0000   0.0000   0.0000   0.4763
   0.300   0.7974   0.00709   0.00289  -0.1787  0.7912  0.8064  -0.8358   0.0000   0.0000   0.0000   0.4728
   0.400   0.8072   0.00706   0.00289  -0.1783  0.7884  0.8345  -0.8450   0.0000   0.0000   0.0000   0.4694
   0.500   0.8159   0.00703   0.00290  -0.1776  0.7854  0.8662  -0.8534   0.0000   0.0000   0.0000   0.4661
   0.600   0.8206   0.00694   0.00290  -0.1760  0.7828  0.9045  -0.8600   0.0000   0.0000   0.0000   0.4628
   0.700   0.8309   0.00682   0.00283  -0.1756  0.7799  1.0000  -0.8707   0.0000   0.0000   0.0000   0.4596
   0.800   0.8414   0.00684   0.00283  -0.1754  0.7768  1.0000  -0.8817   0.0000   0.0000   0.0000   0.4566
   0.900   0.8520   0.00686   0.00283  -0.1753  0.7737  1.0000  -0.8929   0.0000   0.0000   0.0000   0.4537
   1.000   0.8630   0.00688   0.00282  -0.1752  0.7706  1.0000  -0.9048   0.0000   0.0000   0.0000   0.4509
   1.100   0.8744   0.00690   0.00281  -0.1752  0.7674  1.0000  -0.9176   0.0000   0.0000   0.0000   0.4482
   1.200   0.8861   0.00694   0.00280  -0.1753  0.7642  1.0000  -0.9305   0.0000   0.0000   0.0000   0.4455
   1.300   0.8984   0.00699   0.00280  -0.1755  0.7607  1.0000  -0.9439   0.0000   0.0000   0.0000   0.4429
   1.400   0.9081   0.00701   0.00282  -0.1752  0.7577  1.0000  -0.9565   0.0000   0.0000   0.0000   0.4403
   1.500   0.9178   0.00702   0.00283  -0.1749  0.7541  1.0000  -0.9694   0.0000   0.0000   0.0000   0.4378
   1.600   0.9278   0.00704   0.00284  -0.1746  0.7503  1.0000  -0.9835   0.0000   0.0000   0.0000   0.4353
   1.700   0.9383   0.00706   0.00284  -0.1744  0.7465  1.0000  -0.9984   0.0000   0.0000   0.0000   0.4329
   1.800   0.9490   0.00709   0.00284  -0.1743  0.7427  1.0000  -1.0136   0.0000   0.0000   0.0000   0.4306
   1.900   0.9601   0.00713   0.00284  -0.1742  0.7389  1.0000  -1.0291   0.0000   0.0000   0.0000   0.4283
   2.000   0.9717   0.00719   0.00284  -0.1743  0.7351  1.0000  -1.0466   0.0000   0.0000   0.0000   0.4260
   2.100   0.9812   0.00721   0.00287  -0.1739  0.7316  1.0000  -1.0627   0.0000   0.0000   0.0000   0.4238
   2.200   0.9909   0.00723   0.00289  -0.1736  0.7274  1.0000  -1.0789   0.0000   0.0000   0.0000   0.4216
   2.300   1.0010   0.00726   0.00291  -0.1733  0.7230  1.0000  -1.0972   0.0000   0.0000   0.0000   0.4195
   2.400   1.0112   0.00729   0.00292  -0.1731  0.7184  1.0000  -1.1161   0.0000   0.0000   0.0000   0.4174
   2.500   1.0216   0.00733   0.00292  -0.1729  0.7138  1.0000  -1.1374   0.0000   0.0000   0.0000   0.4153
   2.600   1.0320   0.00739   0.00295  -0.1727  0.7091  1.0000  -1.1592   0.0000   0.0000   0.0000   0.4133
   2.700   1.0416   0.00742   0.00299  -0.1723  0.7046  1.0000  -1.1800   0.0000   0.0000   0.0000   0.4113
   2.800   1.0513   0.00745   0.00301  -0.1720  0.6995  1.0000  -1.2011   0.0000   0.0000   0.0000   0.4093
   2.900   1.0610   0.00749   0.00303  -0.1717  0.6940  1.0000  -1.2224   0.0000   0.0000   0.0000   0.4074
   3.000   1.0709   0.00755   0.00305  -0.1714  0.6886  1.0000  -1.2439   0.0000   0.0000   0.0000   0.4055
   3.100   1.0807   0.00761   0.00307  -0.1711  0.6835  1.0000  -1.2654   0.0000   0.0000   0.0000   0.4037
   3.200   1.0902   0.00765   0.00311  -0.1707  0.6780  1.0000  -1.2867   0.0000   0.0000   0.0000   0.4018
   3.300   1.0996   0.00770   0.00314  -0.1703  0.6717  1.0000  -1.3079   0.0000   0.0000   0.0000   0.4000
   3.400   1.1088   0.00777   0.00317  -0.1699  0.6651  1.0000  -1.3291   0.0000   0.0000   0.0000   0.3982
   3.500   1.1180   0.00785   0.00320  -0.1694  0.6588  1.0000  -1.3503   0.0000   0.0000   0.0000   0.3964
   3.600   1.1273   0.00790   0.00325  -0.1690  0.6523  1.0000  -1.3738   0.0000   0.0000   0.0000   0.3947
   3.700   1.1361   0.00796   0.00329  -0.1685  0.6444  1.0000  -1.3976   0.0000   0.0000   0.0000   0.3929
   3.800   1.1445   0.00806   0.00333  -0.1679  0.6364  1.0000  -1.4210   0.0000   0.0000   0.0000   0.3912
   3.900   1.1534   0.00814   0.00338  -0.1674  0.6292  1.0000  -1.4450   0.0000   0.0000   0.0000   0.3895
   4.000   1.1623   0.00821   0.00344  -0.1669  0.6211  1.0000  -1.4691   0.0000   0.0000   0.0000   0.3879
   4.100   1.1704   0.00831   0.00352  -0.1663  0.6127  1.0000  -1.4925   0.0000   0.0000   0.0000   0.3862
   4.200   1.1789   0.00841   0.00358  -0.1657  0.6054  1.0000  -1.5163   0.0000   0.0000   0.0000   0.3846
   4.300   1.1879   0.00848   0.00364  -0.1653  0.5978  1.0000  -1.5409   0.0000   0.0000   0.0000   0.3830
   4.400   1.1961   0.00859   0.00370  -0.1646  0.5897  1.0000  -1.5677   0.0000   0.0000   0.0000   0.3814
   4.500   1.2039   0.00871   0.00378  -0.1639  0.5822  1.0000  -1.5974   0.0000   0.0000   0.0000   0.3798
   4.600   1.2128   0.00879   0.00385  -0.1635  0.5744  1.0000  -1.6291   0.0000   0.0000   0.0000   0.3783
   4.700   1.2207   0.00890   0.00392  -0.1628  0.5655  1.0000  -1.6593   0.0000   0.0000   0.0000   0.3767
   4.800   1.2277   0.00905   0.00401  -0.1620  0.5568  1.0000  -1.6883   0.0000   0.0000   0.0000   0.3752
   4.900   1.2360   0.00914   0.00409  -0.1614  0.5474  1.0000  -1.7196   0.0000   0.0000   0.0000   0.3737
   5.000   1.2427   0.00929   0.00418  -0.1605  0.5367  1.0000  -1.7484   0.0000   0.0000   0.0000   0.3721
   5.100   1.2498   0.00943   0.00427  -0.1597  0.5268  1.0000  -1.7779   0.0000   0.0000   0.0000   0.3706
   5.200   1.2567   0.00957   0.00437  -0.1588  0.5153  1.0000  -1.8074   0.0000   0.0000   0.0000   0.3691
   5.300   1.2625   0.00974   0.00448  -0.1577  0.5048  1.0000  -1.8350   0.0000   0.0000   0.0000   0.3675
   5.400   1.2696   0.00986   0.00457  -0.1569  0.4942  1.0000  -1.8649   0.0000   0.0000   0.0000   0.3661
   5.500   1.2748   0.01004   0.00468  -0.1557  0.4838  1.0000  -1.8919   0.0000   0.0000   0.0000   0.3645
   5.600   1.2814   0.01017   0.00479  -0.1548  0.4743  1.0000  -1.9213   0.0000   0.0000   0.0000   0.3630
   5.700   1.2875   0.01033   0.00493  -0.1538  0.4634  1.0000  -1.9499   0.0000   0.0000   0.0000   0.3615
   5.800   1.2928   0.01052   0.00506  -0.1527  0.4534  1.0000  -1.9797   0.0000   0.0000   0.0000   0.3600
   5.900   1.2993   0.01067   0.00518  -0.1518  0.4417  1.0000  -2.0128   0.0000   0.0000   0.0000   0.3586
   6.000   1.3033   0.01091   0.00533  -0.1504  0.4295  1.0000  -2.0415   0.0000   0.0000   0.0000   0.3571
   6.100   1.3093   0.01109   0.00547  -0.1494  0.4163  1.0000  -2.0739   0.0000   0.0000   0.0000   0.3557
   6.200   1.3131   0.01134   0.00564  -0.1480  0.4030  1.0000  -2.1024   0.0000   0.0000   0.0000   0.3541
   6.300   1.3186   0.01155   0.00579  -0.1470  0.3888  1.0000  -2.1341   0.0000   0.0000   0.0000   0.3527
   6.400   1.3230   0.01181   0.00597  -0.1457  0.3757  1.0000  -2.1638   0.0000   0.0000   0.0000   0.3513
   6.500   1.3284   0.01203   0.00613  -0.1447  0.3621  1.0000  -2.1958   0.0000   0.0000   0.0000   0.3499
   6.600   1.3334   0.01228   0.00631  -0.1436  0.3503  1.0000  -2.2270   0.0000   0.0000   0.0000   0.3485
   6.700   1.3395   0.01249   0.00648  -0.1427  0.3384  1.0000  -2.2603   0.0000   0.0000   0.0000   0.3472
   6.800   1.3445   0.01275   0.00667  -0.1416  0.3274  1.0000  -2.2916   0.0000   0.0000   0.0000   0.3459
   6.900   1.3511   0.01294   0.00683  -0.1408  0.3169  1.0000  -2.3265   0.0000   0.0000   0.0000   0.3447
   7.000   1.3560   0.01321   0.00703  -0.1397  0.3058  1.0000  -2.3578   0.0000   0.0000   0.0000   0.3433
   7.100   1.3622   0.01342   0.00721  -0.1389  0.2963  1.0000  -2.3919   0.0000   0.0000   0.0000   0.3421
   7.200   1.3676   0.01366   0.00740  -0.1379  0.2858  1.0000  -2.4246   0.0000   0.0000   0.0000   0.3408
   7.300   1.3726   0.01393   0.00761  -0.1368  0.2761  1.0000  -2.4567   0.0000   0.0000   0.0000   0.3396
   7.400   1.3789   0.01414   0.00782  -0.1360  0.2666  1.0000  -2.4941   0.0000   0.0000   0.0000   0.3384
   7.500   1.3836   0.01443   0.00804  -0.1350  0.2564  1.0000  -2.5295   0.0000   0.0000   0.0000   0.3371
   7.600   1.3898   0.01466   0.00824  -0.1341  0.2475  1.0000  -2.5682   0.0000   0.0000   0.0000   0.3360
   7.700   1.3953   0.01492   0.00846  -0.1332  0.2376  1.0000  -2.6058   0.0000   0.0000   0.0000   0.3348
   7.800   1.4001   0.01523   0.00870  -0.1322  0.2279  1.0000  -2.6417   0.0000   0.0000   0.0000   0.3336
   7.900   1.4065   0.01545   0.00890  -0.1314  0.2195  1.0000  -2.6816   0.0000   0.0000   0.0000   0.3325
   8.000   1.4114   0.01576   0.00915  -0.1304  0.2102  1.0000  -2.7181   0.0000   0.0000   0.0000   0.3313
   8.100   1.4167   0.01603   0.00939  -0.1295  0.2020  1.0000  -2.7558   0.0000   0.0000   0.0000   0.3301
   8.200   1.4227   0.01627   0.00961  -0.1287  0.1947  1.0000  -2.7995   0.0000   0.0000   0.0000   0.3290
   8.300   1.4274   0.01658   0.00987  -0.1277  0.1869  1.0000  -2.8402   0.0000   0.0000   0.0000   0.3279
   8.400   1.4324   0.01688   0.01013  -0.1268  0.1796  1.0000  -2.8819   0.0000   0.0000   0.0000   0.3268
   8.500   1.4388   0.01711   0.01035  -0.1260  0.1739  1.0000  -2.9275   0.0000   0.0000   0.0000   0.3257
   8.600   1.4442   0.01739   0.01061  -0.1252  0.1673  1.0000  -2.9756   0.0000   0.0000   0.0000   0.3246
   8.700   1.4487   0.01773   0.01090  -0.1242  0.1604  1.0000  -3.0213   0.0000   0.0000   0.0000   0.3235
   8.800   1.4547   0.01799   0.01115  -0.1234  0.1549  1.0000  -3.0753   0.0000   0.0000   0.0000   0.3225
   8.900   1.4609   0.01823   0.01141  -0.1227  0.1501  1.0000  -3.1320   0.0000   0.0000   0.0000   0.3215
   9.000   1.4660   0.01854   0.01169  -0.1218  0.1448  1.0000  -3.1855   0.0000   0.0000   0.0000   0.3204
   9.100   1.4702   0.01890   0.01201  -0.1208  0.1390  1.0000  -3.2362   0.0000   0.0000   0.0000   0.3193
   9.200   1.4751   0.01921   0.01231  -0.1199  0.1337  1.0000  -3.2896   0.0000   0.0000   0.0000   0.3183
   9.300   1.4815   0.01945   0.01256  -0.1192  0.1303  1.0000  -3.3484   0.0000   0.0000   0.0000   0.3173
   9.400   1.4870   0.01974   0.01285  -0.1184  0.1261  1.0000  -3.4046   0.0000   0.0000   0.0000   0.3163
   9.500   1.4917   0.02009   0.01317  -0.1176  0.1216  1.0000  -3.4583   0.0000   0.0000   0.0000   0.3153
   9.600   1.4959   0.02048   0.01352  -0.1166  0.1165  1.0000  -3.5101   0.0000   0.0000   0.0000   0.3143
   9.700   1.5007   0.02082   0.01386  -0.1157  0.1121  1.0000  -3.5639   0.0000   0.0000   0.0000   0.3133
   9.800   1.5070   0.02106   0.01413  -0.1151  0.1099  1.0000  -3.6243   0.0000   0.0000   0.0000   0.3124
   9.900   1.5127   0.02135   0.01442  -0.1144  0.1072  1.0000  -3.6824   0.0000   0.0000   0.0000   0.3115
  10.000   1.5176   0.02168   0.01476  -0.1136  0.1042  1.0000  -3.7384   0.0000   0.0000   0.0000   0.3105
  10.100   1.5220   0.02206   0.01512  -0.1127  0.1009  1.0000  -3.7925   0.0000   0.0000   0.0000   0.3096
  10.200   1.5259   0.02249   0.01552  -0.1118  0.0970  1.0000  -3.8447   0.0000   0.0000   0.0000   0.3086
  10.300   1.5290   0.02297   0.01599  -0.1107  0.0926  1.0000  -3.8931   0.0000   0.0000   0.0000   0.3076
  10.400   1.5353   0.02323   0.01628  -0.1101  0.0910  1.0000  -3.9553   0.0000   0.0000   0.0000   0.3068
  10.500   1.5414   0.02350   0.01660  -0.1095  0.0892  1.0000  -4.0170   0.0000   0.0000   0.0000   0.3059
  10.600   1.5468   0.02383   0.01694  -0.1088  0.0870  1.0000  -4.0760   0.0000   0.0000   0.0000   0.3050
  10.700   1.5514   0.02421   0.01732  -0.1080  0.0846  1.0000  -4.1328   0.0000   0.0000   0.0000   0.3041
  10.800   1.5556   0.02463   0.01773  -0.1072  0.0821  1.0000  -4.1877   0.0000   0.0000   0.0000   0.3033
  10.900   1.5591   0.02510   0.01818  -0.1063  0.0793  1.0000  -4.2402   0.0000   0.0000   0.0000   0.3024
  11.000   1.5617   0.02565   0.01872  -0.1053  0.0759  1.0000  -4.2882   0.0000   0.0000   0.0000   0.3014
  11.100   1.5639   0.02622   0.01930  -0.1043  0.0731  1.0000  -4.3340   0.0000   0.0000   0.0000   0.3005
  11.200   1.5703   0.02649   0.01961  -0.1038  0.0722  1.0000  -4.3990   0.0000   0.0000   0.0000   0.2997
  11.300   1.5761   0.02680   0.01995  -0.1032  0.0709  1.0000  -4.4621   0.0000   0.0000   0.0000   0.2989
  11.400   1.5815   0.02715   0.02033  -0.1026  0.0694  1.0000  -4.5234   0.0000   0.0000   0.0000   0.2981
  11.500   1.5862   0.02755   0.02074  -0.1019  0.0676  1.0000  -4.5826   0.0000   0.0000   0.0000   0.2973
  11.600   1.5905   0.02799   0.02119  -0.1012  0.0658  1.0000  -4.6400   0.0000   0.0000   0.0000   0.2965
  11.700   1.5943   0.02848   0.02168  -0.1005  0.0640  1.0000  -4.6954   0.0000   0.0000   0.0000   0.2957
  11.800   1.5972   0.02904   0.02223  -0.0996  0.0621  1.0000  -4.7471   0.0000   0.0000   0.0000   0.2949
  11.900   1.5991   0.02969   0.02287  -0.0987  0.0599  1.0000  -4.7935   0.0000   0.0000   0.0000   0.2941
  12.000   1.5996   0.03045   0.02365  -0.0977  0.0577  1.0000  -4.8328   0.0000   0.0000   0.0000   0.2932
  12.100   1.6029   0.03100   0.02423  -0.0969  0.0565  1.0000  -4.8856   0.0000   0.0000   0.0000   0.2924
  12.200   1.6087   0.03135   0.02461  -0.0964  0.0559  1.0000  -4.9509   0.0000   0.0000   0.0000   0.2917
  12.300   1.6140   0.03174   0.02504  -0.0959  0.0552  1.0000  -5.0139   0.0000   0.0000   0.0000   0.2910
  12.400   1.6187   0.03218   0.02553  -0.0953  0.0543  1.0000  -5.0743   0.0000   0.0000   0.0000   0.2903
  12.500   1.6229   0.03265   0.02604  -0.0947  0.0534  1.0000  -5.1330   0.0000   0.0000   0.0000   0.2896
  12.600   1.6269   0.03315   0.02657  -0.0941  0.0524  1.0000  -5.1908   0.0000   0.0000   0.0000   0.2888
  12.700   1.6305   0.03369   0.02713  -0.0935  0.0514  1.0000  -5.2474   0.0000   0.0000   0.0000   0.2881
  12.800   1.6340   0.03426   0.02771  -0.0929  0.0503  1.0000  -5.3032   0.0000   0.0000   0.0000   0.2874
  12.900   1.6371   0.03486   0.02832  -0.0922  0.0492  1.0000  -5.3578   0.0000   0.0000   0.0000   0.2867
  13.000   1.6395   0.03553   0.02901  -0.0915  0.0482  1.0000  -5.4089   0.0000   0.0000   0.0000   0.2860
  13.100   1.6411   0.03629   0.02977  -0.0908  0.0470  1.0000  -5.4601   0.0000   0.0000   0.0000   0.2853
  13.200   1.6417   0.03714   0.03064  -0.0900  0.0457  1.0000  -5.5070   0.0000   0.0000   0.0000   0.2846
  13.300   1.6413   0.03812   0.03165  -0.0892  0.0444  1.0000  -5.5468   0.0000   0.0000   0.0000   0.2839
  13.400   1.6391   0.03927   0.03285  -0.0882  0.0431  1.0000  -5.5768   0.0000   0.0000   0.0000   0.2832
  13.500   1.6438   0.03977   0.03339  -0.0878  0.0428  1.0000  -5.6459   0.0000   0.0000   0.0000   0.2826
  13.600   1.6481   0.04030   0.03396  -0.0873  0.0424  1.0000  -5.7136   0.0000   0.0000   0.0000   0.2820
  13.700   1.6522   0.04087   0.03457  -0.0869  0.0419  1.0000  -5.7800   0.0000   0.0000   0.0000   0.2814
  13.800   1.6560   0.04147   0.03520  -0.0865  0.0414  1.0000  -5.8452   0.0000   0.0000   0.0000   0.2808
  13.900   1.6596   0.04209   0.03587  -0.0860  0.0407  1.0000  -5.9093   0.0000   0.0000   0.0000   0.2802
  14.000   1.6630   0.04275   0.03656  -0.0856  0.0400  1.0000  -5.9722   0.0000   0.0000   0.0000   0.2796
  14.100   1.6657   0.04347   0.03731  -0.0851  0.0393  1.0000  -6.0322   0.0000   0.0000   0.0000   0.2790
  14.200   1.6680   0.04423   0.03811  -0.0846  0.0386  1.0000  -6.0906   0.0000   0.0000   0.0000   0.2785
  14.300   1.6702   0.04502   0.03893  -0.0842  0.0379  1.0000  -6.1480   0.0000   0.0000   0.0000   0.2779
  14.400   1.6721   0.04585   0.03978  -0.0837  0.0372  1.0000  -6.2067   0.0000   0.0000   0.0000   0.2774
  14.500   1.6737   0.04673   0.04068  -0.0833  0.0365  1.0000  -6.2840   0.0000   0.0000   0.0000   0.2768
  14.600   1.6741   0.04774   0.04172  -0.0828  0.0357  1.0000  -6.3544   0.0000   0.0000   0.0000   0.2763
  14.700   1.6735   0.04889   0.04290  -0.0823  0.0349  1.0000  -6.4154   0.0000   0.0000   0.0000   0.2758
  14.800   1.6717   0.05019   0.04423  -0.0818  0.0340  1.0000  -6.4672   0.0000   0.0000   0.0000   0.2754
  14.900   1.6684   0.05170   0.04578  -0.0813  0.0331  1.0000  -6.5057   0.0000   0.0000   0.0000   0.2749
  15.000   1.6628   0.05350   0.04765  -0.0807  0.0323  1.0000  -6.5257   0.0000   0.0000   0.0000   0.2745


