xflr5 v6.61

 Calculated polar for: SG6043

 1 1 Reynolds number fixed          Mach number fixed         

 xtrf =   1.000 (top)        1.000 (bottom)
 Mach =   0.000     Re =     0.225 e 6     Ncrit =   9.000

  alpha     CL        CD       CDp       Cm    Top Xtr Bot Xtr   Cpmin    Chinge    XCp    
 ------- -------- --------- --------- -------- ------- ------- -------- --------- ---------
 -10.000  -0.3129   0.12995   0.12667  -0.0388  0.9940  0.0251  -1.6807   0.0000   0.0000   0.0000   0.1139
  -9.900  -0.3035   0.12779   0.12450  -0.0383  0.9935  0.0254  -1.6029   0.0000   0.0000   0.0000   0.1112
  -9.800  -0.2961   0.12616   0.12287  -0.0388  0.9929  0.0257  -1.5587   0.0000   0.0000   0.0000   0.1061
  -9.700  -0.2893   0.12468   0.12139  -0.0397  0.9922  0.0259  -1.5273   0.0000   0.0000   0.0000   0.0998
  -9.600  -0.2828   0.12326   0.11997  -0.0408  0.9915  0.0262  -1.5036   0.0000   0.0000   0.0000   0.0926
  -9.500  -0.2767   0.12189   0.11859  -0.0419  0.9908  0.0265  -1.4861   0.0000   0.0000   0.0000   0.0853
  -9.400  -0.2725   0.12060   0.11731  -0.0426  0.9893  0.0268  -1.4751   0.0000   0.0000   0.0000   0.0804
  -9.300  -0.2679   0.11930   0.11602  -0.0434  0.9879  0.0271  -1.4668   0.0000   0.0000   0.0000   0.0744
  -9.200  -0.2632   0.11799   0.11470  -0.0444  0.9864  0.0275  -1.4611   0.0000   0.0000   0.0000   0.0676
  -9.100  -0.2582   0.11665   0.11337  -0.0455  0.9850  0.0278  -1.4579   0.0000   0.0000   0.0000   0.0599
  -9.000  -0.2530   0.11529   0.11201  -0.0468  0.9835  0.0283  -1.4573   0.0000   0.0000   0.0000   0.0513
  -8.900  -0.2476   0.11391   0.11062  -0.0481  0.9822  0.0287  -1.4593   0.0000   0.0000   0.0000   0.0417
  -8.800  -0.2420   0.11249   0.10920  -0.0495  0.9809  0.0293  -1.4645   0.0000   0.0000   0.0000   0.0310
  -8.700  -0.2361   0.11104   0.10776  -0.0512  0.9797  0.0299  -1.4740   0.0000   0.0000   0.0000   0.0189
  -8.600  -0.2302   0.10959   0.10630  -0.0530  0.9785  0.0305  -1.4905   0.0000   0.0000   0.0000   0.0051
  -8.500  -0.2243   0.10819   0.10490  -0.0553  0.9774  0.0313  -1.5242   0.0000   0.0000   0.0000  -0.0115
  -8.400  -0.2194   0.10706   0.10377  -0.0589  0.9761  0.0321  -1.5983   0.0000   0.0000   0.0000  -0.0338
  -8.300  -0.2142   0.10599   0.10270  -0.0631  0.9749  0.0325  -1.6814   0.0000   0.0000   0.0000  -0.0602
  -8.200  -0.2156   0.10524   0.10197  -0.0637  0.9715  0.0327  -1.7193   0.0000   0.0000   0.0000  -0.0605
  -8.100  -0.2163   0.10439   0.10113  -0.0643  0.9680  0.0328  -1.7548   0.0000   0.0000   0.0000  -0.0622
  -8.000  -0.2141   0.10330   0.10005  -0.0657  0.9654  0.0328  -1.7877   0.0000   0.0000   0.0000  -0.0717
  -7.900  -0.2104   0.10208   0.09883  -0.0673  0.9632  0.0329  -1.8144   0.0000   0.0000   0.0000  -0.0850
  -7.800  -0.2059   0.10075   0.09750  -0.0692  0.9614  0.0329  -1.8408   0.0000   0.0000   0.0000  -0.1012
  -7.700  -0.2008   0.09932   0.09606  -0.0712  0.9597  0.0330  -1.8668   0.0000   0.0000   0.0000  -0.1201
  -7.600  -0.1980   0.09521   0.09197  -0.0699  0.9598  0.0338  -1.8381   0.0000   0.0000   0.0000  -0.1188
  -7.500  -0.1890   0.09374   0.09050  -0.0696  0.9594  0.0342  -1.7611   0.0000   0.0000   0.0000  -0.1347
  -7.400  -0.1801   0.09245   0.08920  -0.0700  0.9587  0.0347  -1.7005   0.0000   0.0000   0.0000  -0.1552
  -7.300  -0.1713   0.09127   0.08802  -0.0706  0.9580  0.0354  -1.6440   0.0000   0.0000   0.0000  -0.1796
  -7.200  -0.1629   0.09010   0.08684  -0.0717  0.9573  0.0363  -1.6012   0.0000   0.0000   0.0000  -0.2085
  -7.100  -0.1547   0.08886   0.08560  -0.0733  0.9565  0.0374  -1.5739   0.0000   0.0000   0.0000  -0.2427
  -7.000  -0.1468   0.08756   0.08430  -0.0752  0.9556  0.0385  -1.5600   0.0000   0.0000   0.0000  -0.2819
  -6.800  -0.1571   0.08661   0.08338  -0.0725  0.9463  0.0391  -1.5751   0.0000   0.0000   0.0000  -0.2291
  -6.700  -0.1550   0.08558   0.08236  -0.0733  0.9436  0.0399  -1.5812   0.0000   0.0000   0.0000  -0.2405
  -6.600  -0.1519   0.08444   0.08122  -0.0748  0.9412  0.0407  -1.5938   0.0000   0.0000   0.0000  -0.2598
  -6.500  -0.1467   0.08308   0.07986  -0.0774  0.9390  0.0416  -1.6195   0.0000   0.0000   0.0000  -0.2950
  -6.400  -0.1339   0.08107   0.07785  -0.0843  0.9367  0.0429  -1.6914   0.0000   0.0000   0.0000  -0.3992
  -6.300  -0.1163   0.07886   0.07561  -0.0926  0.9350  0.0436  -1.7554   0.0000   0.0000   0.0000  -0.5678
  -6.200  -0.1025   0.07693   0.07365  -0.0976  0.9338  0.0438  -1.7760   0.0000   0.0000   0.0000  -0.7262
  -6.100  -0.1233   0.07753   0.07430  -0.0917  0.9248  0.0437  -1.7893   0.0000   0.0000   0.0000  -0.5132
  -6.000  -0.1154   0.07589   0.07263  -0.0948  0.9221  0.0438  -1.8084   0.0000   0.0000   0.0000  -0.5914
  -5.900  -0.1049   0.07393   0.07065  -0.0984  0.9200  0.0439  -1.8277   0.0000   0.0000   0.0000  -0.7093
  -5.800  -0.0932   0.07180   0.06847  -0.1022  0.9183  0.0440  -1.8467   0.0000   0.0000   0.0000  -0.8709
  -5.700  -0.0894   0.06728   0.06395  -0.1058  0.9168  0.0446  -1.9277   0.0000   0.0000   0.0000  -0.9584
  -5.600  -0.0860   0.06517   0.06186  -0.1056  0.9159  0.0452  -1.8885   0.0000   0.0000   0.0000  -1.0041
  -5.500  -0.0786   0.06396   0.06066  -0.1056  0.9151  0.0457  -1.8261   0.0000   0.0000   0.0000  -1.1203
  -5.400  -0.0697   0.06279   0.05949  -0.1060  0.9143  0.0462  -1.7662   0.0000   0.0000   0.0000  -1.3034
  -5.300  -0.0596   0.06164   0.05833  -0.1069  0.9136  0.0467  -1.7083   0.0000   0.0000   0.0000  -1.5791
  -5.200  -0.0483   0.06035   0.05704  -0.1084  0.9129  0.0474  -1.6580   0.0000   0.0000   0.0000  -2.0364
  -5.100  -0.0360   0.05897   0.05562  -0.1103  0.9123  0.0481  -1.6126   0.0000   0.0000   0.0000  -2.8691
  -5.000  -0.0227   0.05744   0.05407  -0.1128  0.9117  0.0490  -1.5757   0.0000   0.0000   0.0000  -4.8112
  -4.900  -0.0083   0.05578   0.05237  -0.1157  0.9111  0.0500  -1.5459   0.0000   0.0000   0.0000  -13.9313
  -4.500   0.0030   0.05163   0.04813  -0.1164  0.8953  0.0531  -1.5338   0.0000   0.0000   0.0000  39.4914
  -4.400   0.0232   0.04950   0.04586  -0.1209  0.8941  0.0557  -1.5446   0.0000   0.0000   0.0000   5.5257
  -4.300   0.0543   0.04906   0.04508  -0.1263  0.8930  0.0587  -1.5766   0.0000   0.0000   0.0000   2.6063
  -4.200   0.0711   0.04764   0.04351  -0.1288  0.8922  0.0589  -1.5859   0.0000   0.0000   0.0000   2.0853
  -4.100   0.0801   0.04133   0.03713  -0.1334  0.8915  0.0612  -1.6676   0.0000   0.0000   0.0000   1.9383
  -4.000   0.0924   0.04008   0.03591  -0.1345  0.8909  0.0621  -1.6248   0.0000   0.0000   0.0000   1.7235
  -3.900   0.1057   0.03901   0.03484  -0.1356  0.8903  0.0631  -1.5838   0.0000   0.0000   0.0000   1.5488
  -3.800   0.1200   0.03799   0.03379  -0.1370  0.8898  0.0644  -1.5475   0.0000   0.0000   0.0000   1.4053
  -3.700   0.1353   0.03694   0.03270  -0.1385  0.8893  0.0660  -1.5170   0.0000   0.0000   0.0000   1.2855
  -3.600   0.1518   0.03584   0.03152  -0.1402  0.8889  0.0682  -1.4949   0.0000   0.0000   0.0000   1.1841
  -3.500   0.1698   0.03466   0.03022  -0.1422  0.8885  0.0711  -1.4857   0.0000   0.0000   0.0000   1.0961
  -3.400   0.1903   0.03398   0.02935  -0.1440  0.8881  0.0754  -1.4860   0.0000   0.0000   0.0000   1.0148
  -3.300   0.2127   0.03576   0.03087  -0.1447  0.8877  0.0785  -1.4427   0.0000   0.0000   0.0000   0.9372
  -3.200   0.2271   0.03020   0.02519  -0.1491  0.8876  0.0830  -1.4838   0.0000   0.0000   0.0000   0.9129
  -3.100   0.2418   0.02950   0.02456  -0.1502  0.8872  0.0859  -1.4184   0.0000   0.0000   0.0000   0.8769
  -3.000   0.2579   0.02899   0.02404  -0.1514  0.8869  0.0903  -1.3580   0.0000   0.0000   0.0000   0.8422
  -2.700   0.2828   0.02224   0.01581  -0.1485  0.8749  0.0418  -1.8305   0.0000   0.0000   0.0000   0.7801
  -2.600   0.2978   0.02145   0.01489  -0.1492  0.8739  0.0414  -1.7985   0.0000   0.0000   0.0000   0.7557
  -2.500   0.3131   0.02075   0.01407  -0.1499  0.8730  0.0411  -1.7601   0.0000   0.0000   0.0000   0.7332
  -2.400   0.3286   0.02012   0.01334  -0.1507  0.8722  0.0410  -1.7162   0.0000   0.0000   0.0000   0.7125
  -2.300   0.3442   0.01955   0.01268  -0.1514  0.8714  0.0411  -1.6675   0.0000   0.0000   0.0000   0.6935
  -2.200   0.3600   0.01903   0.01209  -0.1522  0.8707  0.0414  -1.6149   0.0000   0.0000   0.0000   0.6760
  -2.100   0.3761   0.01855   0.01155  -0.1530  0.8701  0.0419  -1.5590   0.0000   0.0000   0.0000   0.6598
  -2.000   0.3923   0.01812   0.01107  -0.1538  0.8695  0.0427  -1.5003   0.0000   0.0000   0.0000   0.6449
  -1.900   0.4086   0.01775   0.01067  -0.1547  0.8689  0.0436  -1.4385   0.0000   0.0000   0.0000   0.6311
  -1.800   0.4255   0.01712   0.01001  -0.1558  0.8684  0.0455  -1.3905   0.0000   0.0000   0.0000   0.6183
  -1.700   0.4428   0.01663   0.00954  -0.1570  0.8679  0.0489  -1.3547   0.0000   0.0000   0.0000   0.6065
  -1.600   0.4602   0.01633   0.00925  -0.1581  0.8673  0.0533  -1.3174   0.0000   0.0000   0.0000   0.5954
  -1.500   0.4779   0.01599   0.00889  -0.1593  0.8668  0.0604  -1.2957   0.0000   0.0000   0.0000   0.5850
  -1.400   0.4960   0.01552   0.00851  -0.1607  0.8663  0.0849  -1.2753   0.0000   0.0000   0.0000   0.5755
  -1.300   0.5135   0.01523   0.00828  -0.1620  0.8657  0.1092  -1.2246   0.0000   0.0000   0.0000   0.5667
  -1.200   0.5305   0.01499   0.00808  -0.1632  0.8651  0.1295  -1.1633   0.0000   0.0000   0.0000   0.5586
  -1.100   0.5479   0.01467   0.00790  -0.1645  0.8645  0.1623  -1.0982   0.0000   0.0000   0.0000   0.5511
  -1.000   0.5656   0.01429   0.00774  -0.1660  0.8639  0.2233  -1.0315   0.0000   0.0000   0.0000   0.5441
  -0.900   0.5833   0.01370   0.00767  -0.1677  0.8634  0.3838  -0.9632   0.0000   0.0000   0.0000   0.5380
  -0.800   0.5992   0.01320   0.00772  -0.1687  0.8627  0.5715  -0.8981   0.0000   0.0000   0.0000   0.5319
  -0.700   0.6142   0.01293   0.00770  -0.1692  0.8619  0.6577  -0.8340   0.0000   0.0000   0.0000   0.5258
  -0.600   0.5998   0.01336   0.00816  -0.1642  0.8536  0.6612  -0.8429   0.0000   0.0000   0.0000   0.5240
  -0.500   0.6080   0.01324   0.00818  -0.1634  0.8510  0.7116  -0.7955   0.0000   0.0000   0.0000   0.5187
  -0.400   0.6178   0.01310   0.00813  -0.1628  0.8490  0.7554  -0.7447   0.0000   0.0000   0.0000   0.5134
  -0.300   0.6274   0.01293   0.00805  -0.1622  0.8471  0.7981  -0.7189   0.0000   0.0000   0.0000   0.5082
  -0.200   0.6360   0.01272   0.00793  -0.1612  0.8454  0.8468  -0.7259   0.0000   0.0000   0.0000   0.5030
  -0.100   0.6474   0.01243   0.00773  -0.1606  0.8439  0.9399  -0.7347   0.0000   0.0000   0.0000   0.4976
   0.000   0.6662   0.01228   0.00752  -0.1621  0.8428  1.0000  -0.7472   0.0000   0.0000   0.0000   0.4926
   0.100   0.6833   0.01218   0.00736  -0.1632  0.8416  1.0000  -0.7594   0.0000   0.0000   0.0000   0.4880
   0.200   0.7005   0.01209   0.00720  -0.1643  0.8405  1.0000  -0.7718   0.0000   0.0000   0.0000   0.4836
   0.300   0.7179   0.01199   0.00705  -0.1655  0.8393  1.0000  -0.7844   0.0000   0.0000   0.0000   0.4794
   0.400   0.7353   0.01191   0.00691  -0.1667  0.8381  1.0000  -0.7975   0.0000   0.0000   0.0000   0.4754
   0.500   0.7526   0.01186   0.00680  -0.1678  0.8368  1.0000  -0.8108   0.0000   0.0000   0.0000   0.4716
   0.600   0.7510   0.01208   0.00703  -0.1653  0.8315  1.0000  -0.8127   0.0000   0.0000   0.0000   0.4686
   0.700   0.7587   0.01214   0.00707  -0.1646  0.8279  1.0000  -0.8203   0.0000   0.0000   0.0000   0.4653
   0.800   0.7700   0.01214   0.00703  -0.1646  0.8250  1.0000  -0.8308   0.0000   0.0000   0.0000   0.4620
   0.900   0.7833   0.01209   0.00695  -0.1649  0.8226  1.0000  -0.8431   0.0000   0.0000   0.0000   0.4587
   1.000   0.7979   0.01202   0.00684  -0.1655  0.8205  1.0000  -0.8568   0.0000   0.0000   0.0000   0.4554
   1.100   0.8133   0.01194   0.00673  -0.1662  0.8185  1.0000  -0.8710   0.0000   0.0000   0.0000   0.4523
   1.200   0.8293   0.01185   0.00660  -0.1671  0.8166  1.0000  -0.8863   0.0000   0.0000   0.0000   0.4493
   1.300   0.8457   0.01177   0.00647  -0.1680  0.8147  1.0000  -0.9024   0.0000   0.0000   0.0000   0.4463
   1.400   0.8621   0.01170   0.00636  -0.1690  0.8129  1.0000  -0.9187   0.0000   0.0000   0.0000   0.4435
   1.500   0.8754   0.01171   0.00635  -0.1693  0.8104  1.0000  -0.9332   0.0000   0.0000   0.0000   0.4408
   1.600   0.8788   0.01182   0.00647  -0.1677  0.8058  1.0000  -0.9412   0.0000   0.0000   0.0000   0.4382
   1.700   0.8875   0.01185   0.00650  -0.1672  0.8020  1.0000  -0.9533   0.0000   0.0000   0.0000   0.4356
   1.800   0.8990   0.01184   0.00646  -0.1672  0.7986  1.0000  -0.9683   0.0000   0.0000   0.0000   0.4330
   1.900   0.9121   0.01179   0.00639  -0.1674  0.7957  1.0000  -0.9853   0.0000   0.0000   0.0000   0.4305
   2.000   0.9263   0.01173   0.00630  -0.1679  0.7930  1.0000  -1.0032   0.0000   0.0000   0.0000   0.4281
   2.100   0.9412   0.01167   0.00620  -0.1685  0.7904  1.0000  -1.0223   0.0000   0.0000   0.0000   0.4258
   2.200   0.9566   0.01161   0.00611  -0.1693  0.7879  1.0000  -1.0434   0.0000   0.0000   0.0000   0.4235
   2.300   0.9703   0.01161   0.00607  -0.1697  0.7850  1.0000  -1.0631   0.0000   0.0000   0.0000   0.4213
   2.400   0.9751   0.01169   0.00617  -0.1684  0.7803  1.0000  -1.0756   0.0000   0.0000   0.0000   0.4190
   2.500   0.9838   0.01171   0.00619  -0.1678  0.7759  1.0000  -1.0930   0.0000   0.0000   0.0000   0.4168
   2.600   0.9950   0.01169   0.00616  -0.1677  0.7719  1.0000  -1.1127   0.0000   0.0000   0.0000   0.4146
   2.700   1.0077   0.01164   0.00609  -0.1679  0.7683  1.0000  -1.1360   0.0000   0.0000   0.0000   0.4126
   2.800   1.0213   0.01159   0.00603  -0.1682  0.7650  1.0000  -1.1612   0.0000   0.0000   0.0000   0.4106
   2.900   1.0363   0.01155   0.00595  -0.1689  0.7619  1.0000  -1.1880   0.0000   0.0000   0.0000   0.4087
   3.000   1.0465   0.01159   0.00598  -0.1686  0.7580  1.0000  -1.2095   0.0000   0.0000   0.0000   0.4067
   3.100   1.0529   0.01164   0.00605  -0.1676  0.7530  1.0000  -1.2272   0.0000   0.0000   0.0000   0.4047
   3.200   1.0622   0.01165   0.00606  -0.1671  0.7482  1.0000  -1.2481   0.0000   0.0000   0.0000   0.4027
   3.300   1.0733   0.01163   0.00602  -0.1670  0.7438  1.0000  -1.2711   0.0000   0.0000   0.0000   0.4008
   3.400   1.0859   0.01159   0.00596  -0.1671  0.7398  1.0000  -1.2959   0.0000   0.0000   0.0000   0.3990
   3.500   1.1008   0.01156   0.00587  -0.1678  0.7359  1.0000  -1.3233   0.0000   0.0000   0.0000   0.3974
   3.600   1.1081   0.01161   0.00594  -0.1669  0.7307  1.0000  -1.3423   0.0000   0.0000   0.0000   0.3955
   3.700   1.1155   0.01165   0.00599  -0.1661  0.7251  1.0000  -1.3626   0.0000   0.0000   0.0000   0.3936
   3.800   1.1250   0.01165   0.00599  -0.1656  0.7197  1.0000  -1.3872   0.0000   0.0000   0.0000   0.3919
   3.900   1.1368   0.01163   0.00594  -0.1656  0.7147  1.0000  -1.4149   0.0000   0.0000   0.0000   0.3902
   4.000   1.1509   0.01162   0.00587  -0.1661  0.7101  1.0000  -1.4455   0.0000   0.0000   0.0000   0.3887
   4.100   1.1571   0.01168   0.00596  -0.1651  0.7041  1.0000  -1.4663   0.0000   0.0000   0.0000   0.3869
   4.300   1.1751   0.01172   0.00603  -0.1640  0.6916  1.0000  -1.5153   0.0000   0.0000   0.0000   0.3835
   4.400   1.1876   0.01172   0.00597  -0.1641  0.6859  1.0000  -1.5445   0.0000   0.0000   0.0000   0.3820
   4.500   1.1952   0.01178   0.00605  -0.1633  0.6794  1.0000  -1.5716   0.0000   0.0000   0.0000   0.3804
   4.600   1.2030   0.01183   0.00610  -0.1626  0.6721  1.0000  -1.6013   0.0000   0.0000   0.0000   0.3787
   4.700   1.2129   0.01186   0.00609  -0.1622  0.6650  1.0000  -1.6348   0.0000   0.0000   0.0000   0.3772
   4.800   1.2238   0.01190   0.00608  -0.1621  0.6582  1.0000  -1.6702   0.0000   0.0000   0.0000   0.3758
   4.900   1.2303   0.01197   0.00618  -0.1611  0.6504  1.0000  -1.6982   0.0000   0.0000   0.0000   0.3741
   5.000   1.2388   0.01203   0.00622  -0.1605  0.6424  1.0000  -1.7299   0.0000   0.0000   0.0000   0.3726
   5.100   1.2492   0.01210   0.00622  -0.1602  0.6349  1.0000  -1.7650   0.0000   0.0000   0.0000   0.3712
   5.200   1.2561   0.01218   0.00631  -0.1593  0.6268  1.0000  -1.7942   0.0000   0.0000   0.0000   0.3696
   5.300   1.2639   0.01227   0.00638  -0.1586  0.6183  1.0000  -1.8251   0.0000   0.0000   0.0000   0.3681
   5.400   1.2733   0.01237   0.00642  -0.1581  0.6102  1.0000  -1.8589   0.0000   0.0000   0.0000   0.3667
   5.500   1.2807   0.01246   0.00652  -0.1574  0.6021  1.0000  -1.8893   0.0000   0.0000   0.0000   0.3653
   5.600   1.2882   0.01256   0.00661  -0.1566  0.5933  1.0000  -1.9202   0.0000   0.0000   0.0000   0.3638
   5.700   1.2966   0.01269   0.00670  -0.1560  0.5844  1.0000  -1.9529   0.0000   0.0000   0.0000   0.3624
   5.800   1.3034   0.01280   0.00681  -0.1551  0.5752  1.0000  -1.9839   0.0000   0.0000   0.0000   0.3610
   5.900   1.3103   0.01293   0.00691  -0.1542  0.5649  1.0000  -2.0177   0.0000   0.0000   0.0000   0.3595
   6.000   1.3173   0.01309   0.00700  -0.1533  0.5549  1.0000  -2.0522   0.0000   0.0000   0.0000   0.3581
   6.100   1.3234   0.01322   0.00713  -0.1523  0.5439  1.0000  -2.0847   0.0000   0.0000   0.0000   0.3567
   6.300   1.3354   0.01356   0.00737  -0.1502  0.5216  1.0000  -2.1503   0.0000   0.0000   0.0000   0.3538
   6.400   1.3406   0.01375   0.00750  -0.1491  0.5101  1.0000  -2.1818   0.0000   0.0000   0.0000   0.3523
   6.500   1.3460   0.01392   0.00764  -0.1479  0.4991  1.0000  -2.2137   0.0000   0.0000   0.0000   0.3509
   6.600   1.3505   0.01411   0.00778  -0.1466  0.4877  1.0000  -2.2439   0.0000   0.0000   0.0000   0.3494
   6.700   1.3549   0.01432   0.00793  -0.1453  0.4769  1.0000  -2.2740   0.0000   0.0000   0.0000   0.3480
   6.800   1.3591   0.01452   0.00809  -0.1439  0.4648  1.0000  -2.3038   0.0000   0.0000   0.0000   0.3465
   6.900   1.3624   0.01477   0.00827  -0.1424  0.4534  1.0000  -2.3322   0.0000   0.0000   0.0000   0.3450
   7.000   1.3664   0.01498   0.00845  -0.1411  0.4407  1.0000  -2.3617   0.0000   0.0000   0.0000   0.3436
   7.100   1.3688   0.01527   0.00865  -0.1395  0.4286  1.0000  -2.3884   0.0000   0.0000   0.0000   0.3421
   7.200   1.3726   0.01551   0.00885  -0.1381  0.4152  1.0000  -2.4177   0.0000   0.0000   0.0000   0.3406
   7.300   1.3748   0.01582   0.00908  -0.1365  0.4028  1.0000  -2.4440   0.0000   0.0000   0.0000   0.3392
   7.400   1.3785   0.01609   0.00934  -0.1351  0.3890  1.0000  -2.4754   0.0000   0.0000   0.0000   0.3378
   7.500   1.3807   0.01643   0.00959  -0.1336  0.3768  1.0000  -2.5049   0.0000   0.0000   0.0000   0.3364
   7.600   1.3841   0.01671   0.00984  -0.1322  0.3635  1.0000  -2.5372   0.0000   0.0000   0.0000   0.3350
   7.700   1.3860   0.01707   0.01012  -0.1307  0.3519  1.0000  -2.5663   0.0000   0.0000   0.0000   0.3336
   7.800   1.3898   0.01737   0.01038  -0.1294  0.3391  1.0000  -2.5995   0.0000   0.0000   0.0000   0.3323
   7.900   1.3915   0.01776   0.01068  -0.1279  0.3277  1.0000  -2.6283   0.0000   0.0000   0.0000   0.3309
   8.000   1.3957   0.01806   0.01096  -0.1267  0.3154  1.0000  -2.6626   0.0000   0.0000   0.0000   0.3297
   8.100   1.3976   0.01847   0.01129  -0.1253  0.3043  1.0000  -2.6918   0.0000   0.0000   0.0000   0.3284
   8.200   1.4019   0.01879   0.01158  -0.1242  0.2932  1.0000  -2.7264   0.0000   0.0000   0.0000   0.3272
   8.300   1.4043   0.01919   0.01192  -0.1228  0.2825  1.0000  -2.7603   0.0000   0.0000   0.0000   0.3259
   8.400   1.4077   0.01955   0.01225  -0.1216  0.2726  1.0000  -2.7971   0.0000   0.0000   0.0000   0.3247
   8.500   1.4111   0.01993   0.01258  -0.1205  0.2621  1.0000  -2.8340   0.0000   0.0000   0.0000   0.3235
   8.600   1.4130   0.02039   0.01297  -0.1191  0.2528  1.0000  -2.8669   0.0000   0.0000   0.0000   0.3223
   8.700   1.4179   0.02071   0.01330  -0.1182  0.2431  1.0000  -2.9092   0.0000   0.0000   0.0000   0.3212
   8.800   1.4203   0.02116   0.01369  -0.1169  0.2339  1.0000  -2.9478   0.0000   0.0000   0.0000   0.3200
   8.900   1.4232   0.02160   0.01408  -0.1158  0.2255  1.0000  -2.9878   0.0000   0.0000   0.0000   0.3188
   9.000   1.4273   0.02198   0.01445  -0.1148  0.2167  1.0000  -3.0313   0.0000   0.0000   0.0000   0.3178
   9.100   1.4295   0.02247   0.01488  -0.1135  0.2085  1.0000  -3.0695   0.0000   0.0000   0.0000   0.3166
   9.200   1.4330   0.02290   0.01531  -0.1125  0.2010  1.0000  -3.1116   0.0000   0.0000   0.0000   0.3156
   9.300   1.4373   0.02329   0.01570  -0.1116  0.1933  1.0000  -3.1594   0.0000   0.0000   0.0000   0.3145
   9.400   1.4397   0.02380   0.01615  -0.1105  0.1862  1.0000  -3.2028   0.0000   0.0000   0.0000   0.3135
   9.500   1.4416   0.02435   0.01665  -0.1093  0.1796  1.0000  -3.2442   0.0000   0.0000   0.0000   0.3124
   9.600   1.4470   0.02469   0.01703  -0.1085  0.1736  1.0000  -3.2979   0.0000   0.0000   0.0000   0.3114
   9.700   1.4507   0.02514   0.01746  -0.1076  0.1674  1.0000  -3.3462   0.0000   0.0000   0.0000   0.3104
   9.800   1.4529   0.02570   0.01796  -0.1065  0.1617  1.0000  -3.3894   0.0000   0.0000   0.0000   0.3094
   9.900   1.4547   0.02630   0.01853  -0.1054  0.1564  1.0000  -3.4305   0.0000   0.0000   0.0000   0.3084
  10.000   1.4604   0.02664   0.01892  -0.1048  0.1521  1.0000  -3.4858   0.0000   0.0000   0.0000   0.3075
  10.100   1.4647   0.02708   0.01937  -0.1040  0.1474  1.0000  -3.5364   0.0000   0.0000   0.0000   0.3065
  10.200   1.4679   0.02760   0.01987  -0.1030  0.1430  1.0000  -3.5833   0.0000   0.0000   0.0000   0.3056
  10.300   1.4697   0.02823   0.02046  -0.1020  0.1387  1.0000  -3.6252   0.0000   0.0000   0.0000   0.3046
  10.400   1.4709   0.02894   0.02113  -0.1009  0.1341  1.0000  -3.6640   0.0000   0.0000   0.0000   0.3037
  10.500   1.4767   0.02928   0.02154  -0.1003  0.1311  1.0000  -3.7207   0.0000   0.0000   0.0000   0.3028
  10.600   1.4816   0.02970   0.02200  -0.0996  0.1276  1.0000  -3.7742   0.0000   0.0000   0.0000   0.3020
  10.700   1.4855   0.03019   0.02251  -0.0988  0.1240  1.0000  -3.8246   0.0000   0.0000   0.0000   0.3011
  10.800   1.4884   0.03077   0.02307  -0.0980  0.1205  1.0000  -3.8713   0.0000   0.0000   0.0000   0.3002
  10.900   1.4899   0.03147   0.02374  -0.0970  0.1170  1.0000  -3.9129   0.0000   0.0000   0.0000   0.2993
  11.000   1.4900   0.03238   0.02463  -0.0959  0.1127  1.0000  -3.9465   0.0000   0.0000   0.0000   0.2984
  11.100   1.4956   0.03275   0.02506  -0.0954  0.1107  1.0000  -4.0034   0.0000   0.0000   0.0000   0.2976
  11.200   1.5005   0.03319   0.02556  -0.0948  0.1082  1.0000  -4.0577   0.0000   0.0000   0.0000   0.2968
  11.300   1.5047   0.03369   0.02610  -0.0941  0.1056  1.0000  -4.1099   0.0000   0.0000   0.0000   0.2960
  11.400   1.5085   0.03423   0.02667  -0.0934  0.1030  1.0000  -4.1604   0.0000   0.0000   0.0000   0.2953
  11.500   1.5114   0.03485   0.02729  -0.0927  0.1004  1.0000  -4.2080   0.0000   0.0000   0.0000   0.2945
  11.600   1.5134   0.03556   0.02799  -0.0919  0.0979  1.0000  -4.2519   0.0000   0.0000   0.0000   0.2937
  11.700   1.5143   0.03642   0.02882  -0.0910  0.0951  1.0000  -4.2899   0.0000   0.0000   0.0000   0.2929
  11.800   1.5153   0.03741   0.02980  -0.0901  0.0919  1.0000  -4.3249   0.0000   0.0000   0.0000   0.2921
  11.900   1.5201   0.03786   0.03032  -0.0896  0.0907  1.0000  -4.3800   0.0000   0.0000   0.0000   0.2913
  12.000   1.5245   0.03837   0.03089  -0.0890  0.0890  1.0000  -4.4336   0.0000   0.0000   0.0000   0.2906
  12.100   1.5286   0.03892   0.03149  -0.0885  0.0872  1.0000  -4.4858   0.0000   0.0000   0.0000   0.2899
  12.200   1.5323   0.03951   0.03213  -0.0879  0.0853  1.0000  -4.5369   0.0000   0.0000   0.0000   0.2892
  12.300   1.5356   0.04014   0.03279  -0.0873  0.0835  1.0000  -4.5866   0.0000   0.0000   0.0000   0.2885
  12.400   1.5384   0.04081   0.03349  -0.0867  0.0817  1.0000  -4.6348   0.0000   0.0000   0.0000   0.2878
  12.500   1.5408   0.04154   0.03424  -0.0861  0.0801  1.0000  -4.6810   0.0000   0.0000   0.0000   0.2872
  12.600   1.5426   0.04235   0.03505  -0.0855  0.0783  1.0000  -4.7246   0.0000   0.0000   0.0000   0.2865
  12.700   1.5440   0.04328   0.03596  -0.0848  0.0764  1.0000  -4.7643   0.0000   0.0000   0.0000   0.2858
  12.800   1.5457   0.04444   0.03710  -0.0841  0.0736  1.0000  -4.7988   0.0000   0.0000   0.0000   0.2851
  12.900   1.5494   0.04509   0.03782  -0.0836  0.0726  1.0000  -4.8489   0.0000   0.0000   0.0000   0.2845
  13.000   1.5528   0.04571   0.03853  -0.0831  0.0717  1.0000  -4.8993   0.0000   0.0000   0.0000   0.2838
  13.100   1.5560   0.04637   0.03926  -0.0826  0.0707  1.0000  -4.9485   0.0000   0.0000   0.0000   0.2832
  13.200   1.5590   0.04707   0.04002  -0.0822  0.0694  1.0000  -4.9971   0.0000   0.0000   0.0000   0.2826
  13.300   1.5620   0.04779   0.04079  -0.0817  0.0682  1.0000  -5.0451   0.0000   0.0000   0.0000   0.2820
  13.400   1.5648   0.04854   0.04159  -0.0813  0.0669  1.0000  -5.0926   0.0000   0.0000   0.0000   0.2814
  13.500   1.5673   0.04931   0.04241  -0.0808  0.0656  1.0000  -5.1394   0.0000   0.0000   0.0000   0.2809
  13.600   1.5695   0.05013   0.04326  -0.0804  0.0644  1.0000  -5.1846   0.0000   0.0000   0.0000   0.2803
  13.700   1.5714   0.05099   0.04415  -0.0799  0.0633  1.0000  -5.2290   0.0000   0.0000   0.0000   0.2798
  13.800   1.5730   0.05189   0.04507  -0.0795  0.0622  1.0000  -5.2761   0.0000   0.0000   0.0000   0.2792
  13.900   1.5743   0.05285   0.04605  -0.0791  0.0610  1.0000  -5.3232   0.0000   0.0000   0.0000   0.2787
  14.000   1.5755   0.05390   0.04710  -0.0787  0.0596  1.0000  -5.3676   0.0000   0.0000   0.0000   0.2782
  14.100   1.5776   0.05515   0.04835  -0.0782  0.0577  1.0000  -5.4085   0.0000   0.0000   0.0000   0.2776
  14.200   1.5804   0.05622   0.04948  -0.0777  0.0565  1.0000  -5.4542   0.0000   0.0000   0.0000   0.2771
  14.300   1.5822   0.05706   0.05039  -0.0774  0.0559  1.0000  -5.5040   0.0000   0.0000   0.0000   0.2766
  14.400   1.5836   0.05797   0.05138  -0.0771  0.0553  1.0000  -5.5510   0.0000   0.0000   0.0000   0.2761
  14.500   1.5851   0.05891   0.05240  -0.0768  0.0545  1.0000  -5.5978   0.0000   0.0000   0.0000   0.2757
  14.600   1.5866   0.05987   0.05343  -0.0765  0.0536  1.0000  -5.6445   0.0000   0.0000   0.0000   0.2752
  14.700   1.5880   0.06086   0.05448  -0.0762  0.0527  1.0000  -5.6908   0.0000   0.0000   0.0000   0.2748
  14.800   1.5891   0.06189   0.05557  -0.0760  0.0518  1.0000  -5.7355   0.0000   0.0000   0.0000   0.2744
  14.900   1.5901   0.06296   0.05668  -0.0757  0.0509  1.0000  -5.7877   0.0000   0.0000   0.0000   0.2740
  15.000   1.5910   0.06403   0.05781  -0.0755  0.0501  1.0000  -5.8543   0.0000   0.0000   0.0000   0.2736


