xflr5 v6.61

 Calculated polar for: SG6043

 1 1 Reynolds number fixed          Mach number fixed         

 xtrf =   1.000 (top)        1.000 (bottom)
 Mach =   0.000     Re =     0.450 e 6     Ncrit =   9.000

  alpha     CL        CD       CDp       Cm    Top Xtr Bot Xtr   Cpmin    Chinge    XCp    
 ------- -------- --------- --------- -------- ------- ------- -------- --------- ---------
 -10.000  -0.2007   0.11460   0.11207  -0.0630  0.9815  0.0147  -1.4673   0.0000   0.0000   0.0000  -0.0848
  -9.900  -0.1951   0.11319   0.11066  -0.0643  0.9807  0.0148  -1.4630   0.0000   0.0000   0.0000  -0.1010
  -9.800  -0.1893   0.11177   0.10924  -0.0656  0.9800  0.0150  -1.4601   0.0000   0.0000   0.0000  -0.1186
  -9.700  -0.1835   0.11033   0.10780  -0.0670  0.9793  0.0152  -1.4588   0.0000   0.0000   0.0000  -0.1378
  -9.600  -0.1775   0.10887   0.10634  -0.0684  0.9787  0.0154  -1.4590   0.0000   0.0000   0.0000  -0.1589
  -9.500  -0.1713   0.10739   0.10486  -0.0699  0.9781  0.0156  -1.4608   0.0000   0.0000   0.0000  -0.1822
  -9.400  -0.1651   0.10589   0.10336  -0.0715  0.9775  0.0159  -1.4647   0.0000   0.0000   0.0000  -0.2078
  -9.300  -0.1587   0.10437   0.10183  -0.0731  0.9769  0.0161  -1.4712   0.0000   0.0000   0.0000  -0.2360
  -9.200  -0.1523   0.10283   0.10028  -0.0748  0.9764  0.0165  -1.4813   0.0000   0.0000   0.0000  -0.2671
  -9.100  -0.1459   0.10125   0.09871  -0.0765  0.9759  0.0168  -1.4978   0.0000   0.0000   0.0000  -0.3017
  -9.000  -0.1394   0.09960   0.09706  -0.0785  0.9754  0.0173  -1.5318   0.0000   0.0000   0.0000  -0.3415
  -8.900  -0.1334   0.09772   0.09517  -0.0820  0.9748  0.0180  -1.6433   0.0000   0.0000   0.0000  -0.3941
  -8.800  -0.1360   0.09666   0.09413  -0.0823  0.9709  0.0181  -1.7104   0.0000   0.0000   0.0000  -0.3839
  -8.700  -0.1342   0.09533   0.09280  -0.0833  0.9678  0.0182  -1.7636   0.0000   0.0000   0.0000  -0.3994
  -8.600  -0.1298   0.09387   0.09134  -0.0847  0.9658  0.0183  -1.8008   0.0000   0.0000   0.0000  -0.4323
  -8.500  -0.1247   0.09233   0.08980  -0.0863  0.9642  0.0183  -1.8361   0.0000   0.0000   0.0000  -0.4727
  -8.400  -0.1191   0.09070   0.08817  -0.0881  0.9627  0.0184  -1.8737   0.0000   0.0000   0.0000  -0.5210
  -8.300  -0.1133   0.08900   0.08647  -0.0900  0.9615  0.0184  -1.9139   0.0000   0.0000   0.0000  -0.5774
  -8.200  -0.1129   0.08621   0.08370  -0.0905  0.9607  0.0189  -1.9359   0.0000   0.0000   0.0000  -0.5845
  -8.100  -0.1050   0.08522   0.08271  -0.0910  0.9600  0.0192  -1.8615   0.0000   0.0000   0.0000  -0.6508
  -8.000  -0.0970   0.08420   0.08169  -0.0917  0.9594  0.0194  -1.7985   0.0000   0.0000   0.0000  -0.7329
  -7.900  -0.0891   0.08311   0.08060  -0.0928  0.9587  0.0197  -1.7517   0.0000   0.0000   0.0000  -0.8313
  -7.800  -0.0814   0.08193   0.07942  -0.0941  0.9580  0.0201  -1.7174   0.0000   0.0000   0.0000  -0.9505
  -7.700  -0.0736   0.08067   0.07816  -0.0957  0.9574  0.0205  -1.6933   0.0000   0.0000   0.0000  -1.0974
  -7.600  -0.0659   0.07932   0.07681  -0.0975  0.9567  0.0210  -1.6781   0.0000   0.0000   0.0000  -1.2826
  -7.500  -0.0580   0.07789   0.07537  -0.0995  0.9561  0.0215  -1.6707   0.0000   0.0000   0.0000  -1.5228
  -7.400  -0.0501   0.07636   0.07385  -0.1017  0.9555  0.0221  -1.6715   0.0000   0.0000   0.0000  -1.8483
  -7.300  -0.0591   0.07609   0.07360  -0.0990  0.9482  0.0222  -1.6850   0.0000   0.0000   0.0000  -1.4812
  -7.200  -0.0556   0.07480   0.07231  -0.1001  0.9454  0.0227  -1.6986   0.0000   0.0000   0.0000  -1.6079
  -7.100  -0.0511   0.07325   0.07076  -0.1021  0.9430  0.0234  -1.7334   0.0000   0.0000   0.0000  -1.8099
  -7.000  -0.0464   0.07123   0.06874  -0.1061  0.9402  0.0243  -1.8446   0.0000   0.0000   0.0000  -2.1066
  -6.900  -0.0358   0.06906   0.06656  -0.1106  0.9385  0.0246  -1.9020   0.0000   0.0000   0.0000  -2.9278
  -6.800  -0.0246   0.06699   0.06449  -0.1146  0.9375  0.0247  -1.9261   0.0000   0.0000   0.0000  -4.5274
  -6.700  -0.0129   0.06478   0.06227  -0.1189  0.9366  0.0247  -1.9535   0.0000   0.0000   0.0000  -9.1831
  -6.600  -0.0003   0.06235   0.05982  -0.1238  0.9358  0.0248  -1.9849   0.0000   0.0000   0.0000  -450.9125
  -6.500   0.0004   0.05877   0.05625  -0.1262  0.9350  0.0256  -2.0205   0.0000   0.0000   0.0000  295.9567
  -6.400   0.0098   0.05800   0.05548  -0.1268  0.9345  0.0259  -1.9288   0.0000   0.0000   0.0000  13.4369
  -6.300   0.0012   0.05765   0.05514  -0.1244  0.9272  0.0259  -1.9393   0.0000   0.0000   0.0000  106.5692
  -6.200   0.0077   0.05689   0.05438  -0.1248  0.9251  0.0262  -1.8768   0.0000   0.0000   0.0000  16.8783
  -6.100   0.0164   0.05590   0.05338  -0.1260  0.9235  0.0266  -1.8193   0.0000   0.0000   0.0000   8.0853
  -6.000   0.0267   0.05461   0.05208  -0.1281  0.9221  0.0270  -1.7749   0.0000   0.0000   0.0000   5.1423
  -5.900   0.0383   0.05304   0.05050  -0.1309  0.9208  0.0275  -1.7429   0.0000   0.0000   0.0000   3.7318
  -5.800   0.0513   0.05122   0.04865  -0.1344  0.9196  0.0280  -1.7216   0.0000   0.0000   0.0000   2.9198
  -5.700   0.0656   0.04918   0.04657  -0.1384  0.9184  0.0286  -1.7081   0.0000   0.0000   0.0000   2.3978
  -5.600   0.0814   0.04690   0.04425  -0.1429  0.9173  0.0293  -1.7054   0.0000   0.0000   0.0000   2.0366
  -5.500   0.0993   0.04424   0.04152  -0.1481  0.9163  0.0304  -1.7246   0.0000   0.0000   0.0000   1.7669
  -5.400   0.1274   0.04090   0.03797  -0.1555  0.9152  0.0327  -1.8401   0.0000   0.0000   0.0000   1.4908
  -5.300   0.1447   0.03882   0.03574  -0.1592  0.9141  0.0329  -1.8584   0.0000   0.0000   0.0000   1.3672
  -5.100   0.1705   0.03110   0.02768  -0.1676  0.9114  0.0343  -1.9792   0.0000   0.0000   0.0000   1.2477
  -5.000   0.1736   0.03057   0.02715  -0.1666  0.9081  0.0346  -1.9463   0.0000   0.0000   0.0000   1.2233
  -4.900   0.1790   0.02999   0.02656  -0.1660  0.9050  0.0349  -1.9094   0.0000   0.0000   0.0000   1.1907
  -4.800   0.1881   0.02931   0.02585  -0.1663  0.9027  0.0353  -1.8664   0.0000   0.0000   0.0000   1.1464
  -4.500   0.2306   0.01995   0.01532  -0.1711  0.8968  0.0250  -2.4889   0.0000   0.0000   0.0000   1.0028
  -4.400   0.2436   0.01814   0.01335  -0.1722  0.8954  0.0241  -2.5411   0.0000   0.0000   0.0000   0.9667
  -4.300   0.2576   0.01713   0.01216  -0.1730  0.8941  0.0242  -2.5450   0.0000   0.0000   0.0000   0.9310
  -4.200   0.2716   0.01640   0.01129  -0.1738  0.8928  0.0243  -2.5192   0.0000   0.0000   0.0000   0.8983
  -4.100   0.2861   0.01580   0.01057  -0.1746  0.8916  0.0244  -2.4764   0.0000   0.0000   0.0000   0.8682
  -4.000   0.3007   0.01527   0.00992  -0.1754  0.8904  0.0245  -2.4241   0.0000   0.0000   0.0000   0.8407
  -3.900   0.3154   0.01478   0.00933  -0.1762  0.8892  0.0246  -2.3666   0.0000   0.0000   0.0000   0.8156
  -3.800   0.3300   0.01439   0.00885  -0.1769  0.8878  0.0247  -2.3013   0.0000   0.0000   0.0000   0.7927
  -3.700   0.3428   0.01358   0.00791  -0.1775  0.8862  0.0252  -2.2667   0.0000   0.0000   0.0000   0.7740
  -3.600   0.3506   0.01302   0.00729  -0.1769  0.8840  0.0257  -2.2299   0.0000   0.0000   0.0000   0.7605
  -3.500   0.3598   0.01267   0.00690  -0.1765  0.8817  0.0261  -2.1728   0.0000   0.0000   0.0000   0.7463
  -3.400   0.3701   0.01238   0.00658  -0.1764  0.8795  0.0263  -2.1127   0.0000   0.0000   0.0000   0.7319
  -3.300   0.3812   0.01208   0.00623  -0.1763  0.8774  0.0262  -2.0556   0.0000   0.0000   0.0000   0.7176
  -3.200   0.3929   0.01179   0.00590  -0.1764  0.8754  0.0262  -1.9965   0.0000   0.0000   0.0000   0.7037
  -3.100   0.4050   0.01151   0.00558  -0.1766  0.8735  0.0261  -1.9344   0.0000   0.0000   0.0000   0.6904
  -3.000   0.4173   0.01125   0.00528  -0.1768  0.8716  0.0262  -1.8705   0.0000   0.0000   0.0000   0.6778
  -2.900   0.4299   0.01100   0.00500  -0.1771  0.8699  0.0263  -1.8052   0.0000   0.0000   0.0000   0.6658
  -2.800   0.4429   0.01076   0.00474  -0.1774  0.8682  0.0265  -1.7376   0.0000   0.0000   0.0000   0.6542
  -2.700   0.4564   0.01055   0.00449  -0.1779  0.8665  0.0268  -1.6677   0.0000   0.0000   0.0000   0.6432
  -2.600   0.4703   0.01036   0.00428  -0.1785  0.8647  0.0272  -1.5960   0.0000   0.0000   0.0000   0.6327
  -2.500   0.4843   0.01021   0.00410  -0.1791  0.8628  0.0277  -1.5232   0.0000   0.0000   0.0000   0.6227
  -2.400   0.4957   0.01010   0.00398  -0.1791  0.8609  0.0283  -1.4584   0.0000   0.0000   0.0000   0.6141
  -2.300   0.5050   0.01000   0.00387  -0.1787  0.8587  0.0291  -1.4103   0.0000   0.0000   0.0000   0.6064
  -2.200   0.5151   0.00991   0.00376  -0.1784  0.8565  0.0301  -1.3741   0.0000   0.0000   0.0000   0.5987
  -2.100   0.5258   0.00982   0.00366  -0.1783  0.8543  0.0314  -1.3386   0.0000   0.0000   0.0000   0.5912
  -2.000   0.5369   0.00974   0.00356  -0.1782  0.8521  0.0328  -1.3025   0.0000   0.0000   0.0000   0.5839
  -1.900   0.5486   0.00954   0.00338  -0.1783  0.8500  0.0383  -1.2823   0.0000   0.0000   0.0000   0.5768
  -1.800   0.5606   0.00936   0.00325  -0.1785  0.8480  0.0526  -1.2599   0.0000   0.0000   0.0000   0.5700
  -1.700   0.5726   0.00923   0.00318  -0.1786  0.8460  0.0725  -1.2189   0.0000   0.0000   0.0000   0.5635
  -1.600   0.5847   0.00916   0.00312  -0.1788  0.8440  0.0844  -1.1656   0.0000   0.0000   0.0000   0.5571
  -1.500   0.5975   0.00908   0.00307  -0.1792  0.8420  0.0971  -1.1077   0.0000   0.0000   0.0000   0.5510
  -1.400   0.6105   0.00903   0.00302  -0.1796  0.8400  0.1103  -1.0482   0.0000   0.0000   0.0000   0.5451
  -1.300   0.6239   0.00897   0.00299  -0.1801  0.8378  0.1291  -0.9872   0.0000   0.0000   0.0000   0.5395
  -1.200   0.6354   0.00887   0.00299  -0.1802  0.8357  0.1601  -0.9315   0.0000   0.0000   0.0000   0.5343
  -1.100   0.6450   0.00874   0.00299  -0.1800  0.8336  0.2011  -0.8809   0.0000   0.0000   0.0000   0.5296
  -1.000   0.6552   0.00859   0.00299  -0.1799  0.8311  0.2540  -0.8286   0.0000   0.0000   0.0000   0.5250
  -0.900   0.6658   0.00841   0.00300  -0.1799  0.8286  0.3208  -0.7754   0.0000   0.0000   0.0000   0.5205
  -0.800   0.6768   0.00821   0.00301  -0.1801  0.8262  0.4006  -0.7424   0.0000   0.0000   0.0000   0.5162
  -0.700   0.6880   0.00801   0.00305  -0.1802  0.8237  0.4916  -0.7498   0.0000   0.0000   0.0000   0.5119
  -0.600   0.6991   0.00788   0.00309  -0.1802  0.8213  0.5631  -0.7575   0.0000   0.0000   0.0000   0.5076
  -0.500   0.7104   0.00779   0.00311  -0.1801  0.8190  0.6135  -0.7655   0.0000   0.0000   0.0000   0.5033
  -0.400   0.7220   0.00771   0.00312  -0.1802  0.8166  0.6527  -0.7737   0.0000   0.0000   0.0000   0.4992
  -0.300   0.7340   0.00766   0.00313  -0.1803  0.8143  0.6844  -0.7825   0.0000   0.0000   0.0000   0.4951
  -0.200   0.7464   0.00765   0.00314  -0.1805  0.8116  0.7102  -0.7916   0.0000   0.0000   0.0000   0.4911
  -0.100   0.7555   0.00762   0.00317  -0.1800  0.8093  0.7322  -0.7995   0.0000   0.0000   0.0000   0.4874
   0.000   0.7642   0.00758   0.00319  -0.1794  0.8067  0.7559  -0.8073   0.0000   0.0000   0.0000   0.4838
   0.100   0.7730   0.00753   0.00321  -0.1787  0.8039  0.7818  -0.8151   0.0000   0.0000   0.0000   0.4802
   0.200   0.7817   0.00748   0.00322  -0.1781  0.8011  0.8090  -0.8230   0.0000   0.0000   0.0000   0.4766
   0.300   0.7899   0.00742   0.00322  -0.1773  0.7982  0.8372  -0.8312   0.0000   0.0000   0.0000   0.4731
   0.400   0.7971   0.00734   0.00320  -0.1762  0.7953  0.8699  -0.8389   0.0000   0.0000   0.0000   0.4697
   0.500   0.8035   0.00726   0.00316  -0.1749  0.7924  0.9119  -0.8461   0.0000   0.0000   0.0000   0.4662
   0.600   0.8175   0.00717   0.00307  -0.1753  0.7898  1.0000  -0.8580   0.0000   0.0000   0.0000   0.4628
   0.700   0.8305   0.00721   0.00306  -0.1757  0.7868  1.0000  -0.8701   0.0000   0.0000   0.0000   0.4598
   0.800   0.8411   0.00724   0.00307  -0.1756  0.7841  1.0000  -0.8812   0.0000   0.0000   0.0000   0.4569
   0.900   0.8508   0.00726   0.00308  -0.1753  0.7811  1.0000  -0.8917   0.0000   0.0000   0.0000   0.4540
   1.000   0.8609   0.00727   0.00308  -0.1750  0.7780  1.0000  -0.9030   0.0000   0.0000   0.0000   0.4512
   1.100   0.8714   0.00729   0.00308  -0.1748  0.7747  1.0000  -0.9151   0.0000   0.0000   0.0000   0.4484
   1.200   0.8821   0.00731   0.00308  -0.1747  0.7715  1.0000  -0.9274   0.0000   0.0000   0.0000   0.4457
   1.300   0.8934   0.00733   0.00307  -0.1747  0.7683  1.0000  -0.9402   0.0000   0.0000   0.0000   0.4430
   1.400   0.9051   0.00736   0.00305  -0.1748  0.7650  1.0000  -0.9541   0.0000   0.0000   0.0000   0.4405
   1.500   0.9174   0.00740   0.00304  -0.1750  0.7616  1.0000  -0.9688   0.0000   0.0000   0.0000   0.4380
   1.600   0.9277   0.00743   0.00306  -0.1747  0.7583  1.0000  -0.9830   0.0000   0.0000   0.0000   0.4355
   1.700   0.9371   0.00745   0.00308  -0.1743  0.7546  1.0000  -0.9970   0.0000   0.0000   0.0000   0.4331
   1.800   0.9469   0.00747   0.00309  -0.1740  0.7507  1.0000  -1.0115   0.0000   0.0000   0.0000   0.4307
   1.900   0.9571   0.00749   0.00310  -0.1738  0.7468  1.0000  -1.0263   0.0000   0.0000   0.0000   0.4284
   2.000   0.9679   0.00752   0.00309  -0.1737  0.7430  1.0000  -1.0430   0.0000   0.0000   0.0000   0.4261
   2.100   0.9791   0.00755   0.00309  -0.1736  0.7393  1.0000  -1.0604   0.0000   0.0000   0.0000   0.4239
   2.200   0.9908   0.00760   0.00309  -0.1737  0.7355  1.0000  -1.0784   0.0000   0.0000   0.0000   0.4218
   2.300   1.0002   0.00763   0.00312  -0.1733  0.7317  1.0000  -1.0961   0.0000   0.0000   0.0000   0.4196
   2.400   1.0096   0.00765   0.00315  -0.1729  0.7274  1.0000  -1.1142   0.0000   0.0000   0.0000   0.4175
   2.500   1.0195   0.00768   0.00317  -0.1726  0.7228  1.0000  -1.1346   0.0000   0.0000   0.0000   0.4154
   2.600   1.0297   0.00771   0.00319  -0.1724  0.7180  1.0000  -1.1560   0.0000   0.0000   0.0000   0.4134
   2.700   1.0402   0.00775   0.00319  -0.1722  0.7133  1.0000  -1.1779   0.0000   0.0000   0.0000   0.4114
   2.800   1.0507   0.00781   0.00321  -0.1720  0.7087  1.0000  -1.1999   0.0000   0.0000   0.0000   0.4094
   2.900   1.0600   0.00783   0.00325  -0.1716  0.7040  1.0000  -1.2206   0.0000   0.0000   0.0000   0.4075
   3.000   1.0695   0.00787   0.00327  -0.1712  0.6986  1.0000  -1.2417   0.0000   0.0000   0.0000   0.4056
   3.100   1.0792   0.00791   0.00329  -0.1709  0.6931  1.0000  -1.2631   0.0000   0.0000   0.0000   0.4037
   3.200   1.0892   0.00797   0.00330  -0.1706  0.6877  1.0000  -1.2849   0.0000   0.0000   0.0000   0.4019
   3.300   1.0989   0.00803   0.00333  -0.1703  0.6825  1.0000  -1.3066   0.0000   0.0000   0.0000   0.4001
   3.400   1.1081   0.00807   0.00338  -0.1698  0.6766  1.0000  -1.3276   0.0000   0.0000   0.0000   0.3983
   3.500   1.1173   0.00812   0.00341  -0.1694  0.6700  1.0000  -1.3488   0.0000   0.0000   0.0000   0.3965
   3.600   1.1266   0.00819   0.00344  -0.1689  0.6635  1.0000  -1.3721   0.0000   0.0000   0.0000   0.3947
   3.700   1.1358   0.00827   0.00347  -0.1685  0.6572  1.0000  -1.3964   0.0000   0.0000   0.0000   0.3930
   3.800   1.1447   0.00832   0.00352  -0.1680  0.6499  1.0000  -1.4203   0.0000   0.0000   0.0000   0.3913
   3.900   1.1533   0.00840   0.00356  -0.1675  0.6419  1.0000  -1.4441   0.0000   0.0000   0.0000   0.3896
   4.000   1.1618   0.00851   0.00361  -0.1669  0.6343  1.0000  -1.4678   0.0000   0.0000   0.0000   0.3879
   4.100   1.1707   0.00856   0.00369  -0.1664  0.6270  1.0000  -1.4921   0.0000   0.0000   0.0000   0.3863
   4.200   1.1793   0.00865   0.00375  -0.1658  0.6187  1.0000  -1.5160   0.0000   0.0000   0.0000   0.3846
   4.300   1.1873   0.00876   0.00380  -0.1652  0.6107  1.0000  -1.5395   0.0000   0.0000   0.0000   0.3830
   4.400   1.1961   0.00884   0.00387  -0.1647  0.6036  1.0000  -1.5667   0.0000   0.0000   0.0000   0.3814
   4.500   1.2047   0.00892   0.00393  -0.1641  0.5957  1.0000  -1.5977   0.0000   0.0000   0.0000   0.3799
   4.600   1.2126   0.00904   0.00400  -0.1635  0.5876  1.0000  -1.6279   0.0000   0.0000   0.0000   0.3783
   4.700   1.2207   0.00915   0.00408  -0.1628  0.5801  1.0000  -1.6584   0.0000   0.0000   0.0000   0.3768
   4.800   1.2291   0.00924   0.00415  -0.1623  0.5716  1.0000  -1.6896   0.0000   0.0000   0.0000   0.3753
   4.900   1.2364   0.00937   0.00424  -0.1615  0.5624  1.0000  -1.7192   0.0000   0.0000   0.0000   0.3737
   5.000   1.2439   0.00950   0.00432  -0.1607  0.5535  1.0000  -1.7492   0.0000   0.0000   0.0000   0.3722
   5.100   1.2514   0.00962   0.00441  -0.1600  0.5431  1.0000  -1.7794   0.0000   0.0000   0.0000   0.3707
   5.300   1.2649   0.00991   0.00461  -0.1582  0.5221  1.0000  -1.8379   0.0000   0.0000   0.0000   0.3677
   5.400   1.2708   0.01008   0.00471  -0.1572  0.5108  1.0000  -1.8660   0.0000   0.0000   0.0000   0.3661
   5.500   1.2772   0.01022   0.00482  -0.1562  0.5007  1.0000  -1.8948   0.0000   0.0000   0.0000   0.3646
   5.600   1.2833   0.01037   0.00492  -0.1552  0.4899  1.0000  -1.9234   0.0000   0.0000   0.0000   0.3631
   5.700   1.2882   0.01055   0.00507  -0.1539  0.4801  1.0000  -1.9500   0.0000   0.0000   0.0000   0.3616
   5.800   1.2950   0.01068   0.00518  -0.1531  0.4698  1.0000  -1.9824   0.0000   0.0000   0.0000   0.3601
   5.900   1.3000   0.01088   0.00531  -0.1519  0.4590  1.0000  -2.0127   0.0000   0.0000   0.0000   0.3586
   6.000   1.3060   0.01104   0.00544  -0.1509  0.4484  1.0000  -2.0450   0.0000   0.0000   0.0000   0.3572
   6.100   1.3108   0.01125   0.00559  -0.1496  0.4357  1.0000  -2.0753   0.0000   0.0000   0.0000   0.3557
   6.200   1.3156   0.01146   0.00574  -0.1484  0.4234  1.0000  -2.1056   0.0000   0.0000   0.0000   0.3542
   6.300   1.3198   0.01169   0.00590  -0.1471  0.4095  1.0000  -2.1350   0.0000   0.0000   0.0000   0.3527
   6.400   1.3246   0.01192   0.00607  -0.1459  0.3964  1.0000  -2.1655   0.0000   0.0000   0.0000   0.3513
   6.500   1.3286   0.01219   0.00625  -0.1446  0.3823  1.0000  -2.1946   0.0000   0.0000   0.0000   0.3498
   6.600   1.3340   0.01241   0.00642  -0.1436  0.3695  1.0000  -2.2266   0.0000   0.0000   0.0000   0.3485
   6.700   1.3383   0.01268   0.00661  -0.1423  0.3565  1.0000  -2.2565   0.0000   0.0000   0.0000   0.3471
   6.800   1.3442   0.01289   0.00678  -0.1414  0.3451  1.0000  -2.2897   0.0000   0.0000   0.0000   0.3458
   6.900   1.3492   0.01315   0.00698  -0.1403  0.3331  1.0000  -2.3211   0.0000   0.0000   0.0000   0.3445
   7.000   1.3548   0.01338   0.00716  -0.1394  0.3228  1.0000  -2.3539   0.0000   0.0000   0.0000   0.3432
   7.100   1.3602   0.01362   0.00736  -0.1384  0.3117  1.0000  -2.3865   0.0000   0.0000   0.0000   0.3419
   7.200   1.3648   0.01390   0.00757  -0.1372  0.3015  1.0000  -2.4173   0.0000   0.0000   0.0000   0.3406
   7.300   1.3709   0.01412   0.00776  -0.1364  0.2913  1.0000  -2.4515   0.0000   0.0000   0.0000   0.3394
   7.400   1.3753   0.01441   0.00801  -0.1353  0.2808  1.0000  -2.4843   0.0000   0.0000   0.0000   0.3381
   7.500   1.3814   0.01464   0.00821  -0.1344  0.2716  1.0000  -2.5226   0.0000   0.0000   0.0000   0.3369
   7.600   1.3867   0.01490   0.00843  -0.1335  0.2614  1.0000  -2.5595   0.0000   0.0000   0.0000   0.3357
   7.700   1.3915   0.01520   0.00867  -0.1324  0.2518  1.0000  -2.5951   0.0000   0.0000   0.0000   0.3345
   7.800   1.3977   0.01543   0.00887  -0.1316  0.2424  1.0000  -2.6343   0.0000   0.0000   0.0000   0.3333
   7.900   1.4021   0.01575   0.00913  -0.1306  0.2324  1.0000  -2.6696   0.0000   0.0000   0.0000   0.3321
   8.000   1.4078   0.01601   0.00936  -0.1297  0.2238  1.0000  -2.7079   0.0000   0.0000   0.0000   0.3310
   8.100   1.4131   0.01629   0.00960  -0.1288  0.2148  1.0000  -2.7454   0.0000   0.0000   0.0000   0.3298
   8.200   1.4169   0.01665   0.00989  -0.1276  0.2057  1.0000  -2.7826   0.0000   0.0000   0.0000   0.3286
   8.300   1.4230   0.01688   0.01011  -0.1268  0.1985  1.0000  -2.8269   0.0000   0.0000   0.0000   0.3275
   8.400   1.4282   0.01717   0.01037  -0.1259  0.1906  1.0000  -2.8691   0.0000   0.0000   0.0000   0.3264
   8.500   1.4324   0.01753   0.01067  -0.1249  0.1827  1.0000  -2.9087   0.0000   0.0000   0.0000   0.3253
   8.600   1.4385   0.01778   0.01091  -0.1241  0.1766  1.0000  -2.9570   0.0000   0.0000   0.0000   0.3242
   8.700   1.4443   0.01804   0.01116  -0.1233  0.1703  1.0000  -3.0064   0.0000   0.0000   0.0000   0.3232
   8.800   1.4490   0.01838   0.01146  -0.1224  0.1636  1.0000  -3.0530   0.0000   0.0000   0.0000   0.3221
   8.900   1.4533   0.01874   0.01178  -0.1214  0.1568  1.0000  -3.1031   0.0000   0.0000   0.0000   0.3210
   9.000   1.4595   0.01897   0.01204  -0.1207  0.1525  1.0000  -3.1603   0.0000   0.0000   0.0000   0.3200
   9.100   1.4649   0.01927   0.01232  -0.1198  0.1473  1.0000  -3.2147   0.0000   0.0000   0.0000   0.3190
   9.200   1.4693   0.01963   0.01265  -0.1189  0.1419  1.0000  -3.2661   0.0000   0.0000   0.0000   0.3179
   9.300   1.4731   0.02003   0.01301  -0.1179  0.1358  1.0000  -3.3157   0.0000   0.0000   0.0000   0.3169
   9.400   1.4793   0.02028   0.01328  -0.1172  0.1321  1.0000  -3.3736   0.0000   0.0000   0.0000   0.3159
   9.500   1.4853   0.02056   0.01356  -0.1165  0.1282  1.0000  -3.4314   0.0000   0.0000   0.0000   0.3149
   9.600   1.4903   0.02089   0.01388  -0.1156  0.1239  1.0000  -3.4861   0.0000   0.0000   0.0000   0.3140
   9.700   1.4942   0.02129   0.01425  -0.1147  0.1195  1.0000  -3.5371   0.0000   0.0000   0.0000   0.3130
   9.800   1.4974   0.02174   0.01467  -0.1136  0.1143  1.0000  -3.5853   0.0000   0.0000   0.0000   0.3119
   9.900   1.5029   0.02204   0.01499  -0.1129  0.1114  1.0000  -3.6425   0.0000   0.0000   0.0000   0.3110
  10.000   1.5091   0.02231   0.01528  -0.1122  0.1089  1.0000  -3.7024   0.0000   0.0000   0.0000   0.3101
  10.100   1.5146   0.02262   0.01561  -0.1115  0.1061  1.0000  -3.7601   0.0000   0.0000   0.0000   0.3092
  10.200   1.5194   0.02299   0.01597  -0.1107  0.1029  1.0000  -3.8157   0.0000   0.0000   0.0000   0.3082
  10.300   1.5234   0.02342   0.01637  -0.1098  0.0996  1.0000  -3.8685   0.0000   0.0000   0.0000   0.3073
  10.400   1.5263   0.02391   0.01685  -0.1088  0.0957  1.0000  -3.9168   0.0000   0.0000   0.0000   0.3063
  10.500   1.5288   0.02444   0.01737  -0.1078  0.0919  1.0000  -3.9628   0.0000   0.0000   0.0000   0.3053
  10.600   1.5354   0.02469   0.01768  -0.1072  0.0906  1.0000  -4.0265   0.0000   0.0000   0.0000   0.3045
  10.700   1.5414   0.02499   0.01800  -0.1066  0.0886  1.0000  -4.0879   0.0000   0.0000   0.0000   0.3037
  10.800   1.5467   0.02533   0.01837  -0.1060  0.0864  1.0000  -4.1468   0.0000   0.0000   0.0000   0.3028
  10.900   1.5513   0.02573   0.01877  -0.1052  0.0839  1.0000  -4.2035   0.0000   0.0000   0.0000   0.3020
  11.000   1.5550   0.02620   0.01922  -0.1044  0.0814  1.0000  -4.2569   0.0000   0.0000   0.0000   0.3011
  11.100   1.5578   0.02673   0.01975  -0.1035  0.0787  1.0000  -4.3063   0.0000   0.0000   0.0000   0.3002
  11.200   1.5593   0.02738   0.02038  -0.1024  0.0756  1.0000  -4.3494   0.0000   0.0000   0.0000   0.2993
  11.300   1.5612   0.02800   0.02102  -0.1014  0.0731  1.0000  -4.3936   0.0000   0.0000   0.0000   0.2984
  11.400   1.5677   0.02828   0.02134  -0.1009  0.0721  1.0000  -4.4590   0.0000   0.0000   0.0000   0.2976
  11.500   1.5736   0.02861   0.02170  -0.1004  0.0709  1.0000  -4.5225   0.0000   0.0000   0.0000   0.2969
  11.600   1.5789   0.02898   0.02210  -0.0998  0.0694  1.0000  -4.5836   0.0000   0.0000   0.0000   0.2961
  11.700   1.5835   0.02941   0.02256  -0.0991  0.0677  1.0000  -4.6418   0.0000   0.0000   0.0000   0.2953
  11.800   1.5874   0.02989   0.02305  -0.0984  0.0660  1.0000  -4.6978   0.0000   0.0000   0.0000   0.2945
  11.900   1.5909   0.03042   0.02357  -0.0977  0.0644  1.0000  -4.7519   0.0000   0.0000   0.0000   0.2938
  12.000   1.5939   0.03099   0.02415  -0.0969  0.0626  1.0000  -4.8040   0.0000   0.0000   0.0000   0.2930
  12.100   1.5961   0.03165   0.02480  -0.0961  0.0607  1.0000  -4.8518   0.0000   0.0000   0.0000   0.2922
  12.200   1.5966   0.03244   0.02561  -0.0951  0.0586  1.0000  -4.8911   0.0000   0.0000   0.0000   0.2914
  12.300   1.5955   0.03338   0.02657  -0.0940  0.0568  1.0000  -4.9223   0.0000   0.0000   0.0000   0.2905
  12.400   1.6013   0.03373   0.02696  -0.0936  0.0563  1.0000  -4.9876   0.0000   0.0000   0.0000   0.2898
  12.500   1.6066   0.03413   0.02742  -0.0931  0.0556  1.0000  -5.0509   0.0000   0.0000   0.0000   0.2891
  12.600   1.6115   0.03457   0.02790  -0.0926  0.0548  1.0000  -5.1124   0.0000   0.0000   0.0000   0.2885
  12.700   1.6161   0.03505   0.02841  -0.0921  0.0539  1.0000  -5.1724   0.0000   0.0000   0.0000   0.2878
  12.800   1.6202   0.03557   0.02897  -0.0915  0.0529  1.0000  -5.2303   0.0000   0.0000   0.0000   0.2871
  12.900   1.6238   0.03614   0.02957  -0.0909  0.0519  1.0000  -5.2864   0.0000   0.0000   0.0000   0.2864
  13.000   1.6270   0.03675   0.03020  -0.0903  0.0509  1.0000  -5.3408   0.0000   0.0000   0.0000   0.2857
  13.100   1.6299   0.03739   0.03086  -0.0897  0.0499  1.0000  -5.3941   0.0000   0.0000   0.0000   0.2851
  13.200   1.6326   0.03807   0.03155  -0.0891  0.0489  1.0000  -5.4507   0.0000   0.0000   0.0000   0.2844
  13.300   1.6348   0.03881   0.03230  -0.0885  0.0478  1.0000  -5.5061   0.0000   0.0000   0.0000   0.2838
  13.400   1.6358   0.03965   0.03316  -0.0878  0.0467  1.0000  -5.5554   0.0000   0.0000   0.0000   0.2831
  13.500   1.6356   0.04064   0.03417  -0.0871  0.0455  1.0000  -5.5968   0.0000   0.0000   0.0000   0.2824
  13.600   1.6340   0.04178   0.03534  -0.0863  0.0443  1.0000  -5.6304   0.0000   0.0000   0.0000   0.2818
  13.700   1.6314   0.04305   0.03666  -0.0854  0.0431  1.0000  -5.6567   0.0000   0.0000   0.0000   0.2811
  13.800   1.6359   0.04359   0.03724  -0.0851  0.0428  1.0000  -5.7248   0.0000   0.0000   0.0000   0.2806
  13.900   1.6398   0.04419   0.03789  -0.0847  0.0424  1.0000  -5.7900   0.0000   0.0000   0.0000   0.2800
  14.000   1.6434   0.04484   0.03858  -0.0843  0.0419  1.0000  -5.8531   0.0000   0.0000   0.0000   0.2794
  14.100   1.6467   0.04552   0.03931  -0.0839  0.0413  1.0000  -5.9150   0.0000   0.0000   0.0000   0.2789
  14.200   1.6497   0.04624   0.04007  -0.0835  0.0407  1.0000  -5.9758   0.0000   0.0000   0.0000   0.2783
  14.300   1.6526   0.04698   0.04085  -0.0831  0.0400  1.0000  -6.0357   0.0000   0.0000   0.0000   0.2778
  14.400   1.6551   0.04777   0.04168  -0.0827  0.0393  1.0000  -6.0939   0.0000   0.0000   0.0000   0.2773
  14.500   1.6572   0.04862   0.04256  -0.0823  0.0386  1.0000  -6.1528   0.0000   0.0000   0.0000   0.2767
  14.600   1.6590   0.04950   0.04347  -0.0819  0.0379  1.0000  -6.2312   0.0000   0.0000   0.0000   0.2762
  14.700   1.6605   0.05042   0.04442  -0.0816  0.0372  1.0000  -6.3079   0.0000   0.0000   0.0000   0.2758
  14.800   1.6618   0.05140   0.04544  -0.0812  0.0365  1.0000  -6.3838   0.0000   0.0000   0.0000   0.2753
  14.900   1.6621   0.05248   0.04654  -0.0809  0.0358  1.0000  -6.4524   0.0000   0.0000   0.0000   0.2748
  15.000   1.6614   0.05371   0.04780  -0.0805  0.0351  1.0000  -6.5122   0.0000   0.0000   0.0000   0.2744


