xflr5 v6.61

 Calculated polar for: SG6043

 1 1 Reynolds number fixed          Mach number fixed         

 xtrf =   1.000 (top)        1.000 (bottom)
 Mach =   0.000     Re =     0.400 e 6     Ncrit =   9.000

  alpha     CL        CD       CDp       Cm    Top Xtr Bot Xtr   Cpmin    Chinge    XCp    
 ------- -------- --------- --------- -------- ------- ------- -------- --------- ---------
 -10.000  -0.2130   0.11699   0.11434  -0.0590  0.9826  0.0166  -1.4170   0.0000   0.0000   0.0000  -0.0466
  -9.900  -0.2076   0.11548   0.11283  -0.0604  0.9817  0.0169  -1.4288   0.0000   0.0000   0.0000  -0.0609
  -9.800  -0.2020   0.11394   0.11129  -0.0619  0.9808  0.0172  -1.4474   0.0000   0.0000   0.0000  -0.0768
  -9.700  -0.1965   0.11236   0.10970  -0.0637  0.9800  0.0176  -1.4829   0.0000   0.0000   0.0000  -0.0951
  -9.600  -0.1913   0.11076   0.10810  -0.0661  0.9790  0.0179  -1.5499   0.0000   0.0000   0.0000  -0.1170
  -9.500  -0.1866   0.10919   0.10653  -0.0688  0.9781  0.0181  -1.6185   0.0000   0.0000   0.0000  -0.1407
  -9.400  -0.1815   0.10761   0.10495  -0.0713  0.9773  0.0182  -1.6728   0.0000   0.0000   0.0000  -0.1653
  -9.300  -0.1754   0.10596   0.10330  -0.0735  0.9767  0.0183  -1.7128   0.0000   0.0000   0.0000  -0.1919
  -9.200  -0.1689   0.10435   0.10168  -0.0755  0.9761  0.0183  -1.7407   0.0000   0.0000   0.0000  -0.2204
  -9.100  -0.1623   0.10271   0.10005  -0.0774  0.9756  0.0184  -1.7669   0.0000   0.0000   0.0000  -0.2515
  -9.000  -0.1556   0.10104   0.09838  -0.0794  0.9751  0.0184  -1.7944   0.0000   0.0000   0.0000  -0.2859
  -8.900  -0.1488   0.09936   0.09669  -0.0815  0.9746  0.0184  -1.8236   0.0000   0.0000   0.0000  -0.3238
  -8.800  -0.1557   0.09716   0.09452  -0.0802  0.9706  0.0187  -1.8871   0.0000   0.0000   0.0000  -0.2898
  -8.700  -0.1523   0.09592   0.09329  -0.0799  0.9687  0.0189  -1.8400   0.0000   0.0000   0.0000  -0.2994
  -8.600  -0.1460   0.09486   0.09222  -0.0798  0.9674  0.0191  -1.7747   0.0000   0.0000   0.0000  -0.3224
  -8.500  -0.1397   0.09378   0.09114  -0.0802  0.9660  0.0193  -1.7252   0.0000   0.0000   0.0000  -0.3506
  -8.400  -0.1334   0.09266   0.09002  -0.0809  0.9647  0.0195  -1.6869   0.0000   0.0000   0.0000  -0.3841
  -8.300  -0.1271   0.09150   0.08886  -0.0819  0.9635  0.0198  -1.6573   0.0000   0.0000   0.0000  -0.4232
  -8.200  -0.1206   0.09028   0.08764  -0.0831  0.9623  0.0201  -1.6352   0.0000   0.0000   0.0000  -0.4689
  -8.100  -0.1139   0.08900   0.08636  -0.0844  0.9612  0.0206  -1.6203   0.0000   0.0000   0.0000  -0.5225
  -8.000  -0.1072   0.08765   0.08501  -0.0860  0.9602  0.0210  -1.6126   0.0000   0.0000   0.0000  -0.5853
  -7.900  -0.1003   0.08623   0.08359  -0.0877  0.9593  0.0216  -1.6127   0.0000   0.0000   0.0000  -0.6590
  -7.800  -0.0934   0.08473   0.08209  -0.0896  0.9584  0.0223  -1.6232   0.0000   0.0000   0.0000  -0.7465
  -7.700  -0.0863   0.08307   0.08043  -0.0920  0.9575  0.0233  -1.6589   0.0000   0.0000   0.0000  -0.8558
  -7.600  -0.0787   0.08091   0.07827  -0.0978  0.9562  0.0244  -1.8142   0.0000   0.0000   0.0000  -1.0349
  -7.500  -0.0702   0.07917   0.07652  -0.1013  0.9553  0.0246  -1.8696   0.0000   0.0000   0.0000  -1.2413
  -7.400  -0.0824   0.07915   0.07653  -0.0978  0.9470  0.0246  -1.8842   0.0000   0.0000   0.0000  -0.9771
  -7.300  -0.0788   0.07784   0.07522  -0.0992  0.9442  0.0247  -1.9089   0.0000   0.0000   0.0000  -1.0492
  -7.200  -0.0740   0.07635   0.07373  -0.1010  0.9420  0.0247  -1.9318   0.0000   0.0000   0.0000  -1.1585
  -7.100  -0.0675   0.07463   0.07201  -0.1034  0.9403  0.0248  -1.9535   0.0000   0.0000   0.0000  -1.3291
  -7.000  -0.0582   0.07257   0.06995  -0.1066  0.9389  0.0248  -1.9743   0.0000   0.0000   0.0000  -1.6365
  -6.900  -0.0580   0.06902   0.06641  -0.1085  0.9379  0.0254  -2.0250   0.0000   0.0000   0.0000  -1.6721
  -6.800  -0.0502   0.06809   0.06548  -0.1087  0.9374  0.0257  -1.9387   0.0000   0.0000   0.0000  -1.9756
  -6.700  -0.0412   0.06736   0.06475  -0.1091  0.9369  0.0261  -1.8470   0.0000   0.0000   0.0000  -2.4678
  -6.600  -0.0317   0.06649   0.06388  -0.1100  0.9364  0.0266  -1.7691   0.0000   0.0000   0.0000  -3.3170
  -6.500  -0.0217   0.06538   0.06277  -0.1116  0.9359  0.0271  -1.7122   0.0000   0.0000   0.0000  -5.0278
  -6.400  -0.0113   0.06402   0.06140  -0.1139  0.9353  0.0278  -1.6740   0.0000   0.0000   0.0000  -10.1179
  -6.300  -0.0001   0.06241   0.05979  -0.1169  0.9347  0.0285  -1.6507   0.0000   0.0000   0.0000  -992.7978
  -6.200  -0.0104   0.06219   0.05959  -0.1141  0.9269  0.0285  -1.6668   0.0000   0.0000   0.0000  -10.9728
  -6.100  -0.0041   0.06075   0.05814  -0.1160  0.9241  0.0291  -1.6625   0.0000   0.0000   0.0000  -28.5488
  -6.000   0.0050   0.05896   0.05633  -0.1190  0.9221  0.0298  -1.6653   0.0000   0.0000   0.0000  24.3500
  -5.900   0.0167   0.05679   0.05414  -0.1232  0.9204  0.0306  -1.6829   0.0000   0.0000   0.0000   7.7607
  -5.800   0.0414   0.05277   0.05004  -0.1338  0.9187  0.0324  -1.8123   0.0000   0.0000   0.0000   3.5407
  -5.700   0.0611   0.05017   0.04735  -0.1396  0.9176  0.0328  -1.8552   0.0000   0.0000   0.0000   2.5749
  -5.600   0.0776   0.04765   0.04473  -0.1441  0.9167  0.0329  -1.8856   0.0000   0.0000   0.0000   2.1394
  -5.400   0.1014   0.03933   0.03620  -0.1539  0.9147  0.0340  -2.0286   0.0000   0.0000   0.0000   1.7928
  -5.300   0.1141   0.03830   0.03516  -0.1554  0.9141  0.0344  -1.9461   0.0000   0.0000   0.0000   1.6337
  -5.200   0.1273   0.03730   0.03414  -0.1570  0.9135  0.0348  -1.8704   0.0000   0.0000   0.0000   1.5024
  -5.100   0.1410   0.03626   0.03307  -0.1587  0.9127  0.0353  -1.8008   0.0000   0.0000   0.0000   1.3921
  -5.000   0.1556   0.03519   0.03195  -0.1606  0.9120  0.0359  -1.7356   0.0000   0.0000   0.0000   1.2972
  -4.900   0.1707   0.03404   0.03074  -0.1626  0.9112  0.0366  -1.6973   0.0000   0.0000   0.0000   1.2162
  -4.800   0.1655   0.03373   0.03042  -0.1598  0.9057  0.0368  -1.6977   0.0000   0.0000   0.0000   1.2292
  -4.700   0.1738   0.03278   0.02942  -0.1602  0.9030  0.0375  -1.6833   0.0000   0.0000   0.0000   1.1841
  -4.600   0.1854   0.03161   0.02817  -0.1613  0.9011  0.0385  -1.6742   0.0000   0.0000   0.0000   1.1312
  -4.300   0.2369   0.01810   0.01297  -0.1693  0.8964  0.0256  -2.5883   0.0000   0.0000   0.0000   0.9748
  -4.200   0.2514   0.01722   0.01193  -0.1702  0.8953  0.0257  -2.5712   0.0000   0.0000   0.0000   0.9363
  -4.100   0.2660   0.01644   0.01103  -0.1711  0.8943  0.0258  -2.5370   0.0000   0.0000   0.0000   0.9018
  -4.000   0.2805   0.01578   0.01026  -0.1719  0.8932  0.0259  -2.4917   0.0000   0.0000   0.0000   0.8709
  -3.900   0.2949   0.01519   0.00957  -0.1726  0.8922  0.0260  -2.4391   0.0000   0.0000   0.0000   0.8429
  -3.800   0.3092   0.01471   0.00902  -0.1734  0.8912  0.0263  -2.3730   0.0000   0.0000   0.0000   0.8177
  -3.700   0.3236   0.01447   0.00878  -0.1742  0.8901  0.0271  -2.2774   0.0000   0.0000   0.0000   0.7947
  -3.600   0.3383   0.01430   0.00860  -0.1750  0.8890  0.0279  -2.1810   0.0000   0.0000   0.0000   0.7733
  -3.500   0.3533   0.01405   0.00830  -0.1758  0.8879  0.0286  -2.0968   0.0000   0.0000   0.0000   0.7533
  -3.400   0.3674   0.01368   0.00787  -0.1764  0.8865  0.0289  -2.0338   0.0000   0.0000   0.0000   0.7356
  -3.300   0.3741   0.01336   0.00749  -0.1755  0.8839  0.0287  -2.0000   0.0000   0.0000   0.0000   0.7241
  -3.200   0.3830   0.01300   0.00707  -0.1749  0.8815  0.0285  -1.9604   0.0000   0.0000   0.0000   0.7116
  -3.100   0.3933   0.01267   0.00669  -0.1747  0.8793  0.0284  -1.9123   0.0000   0.0000   0.0000   0.6987
  -3.000   0.4047   0.01235   0.00633  -0.1747  0.8772  0.0284  -1.8585   0.0000   0.0000   0.0000   0.6860
  -2.900   0.4168   0.01206   0.00599  -0.1749  0.8753  0.0284  -1.8003   0.0000   0.0000   0.0000   0.6736
  -2.800   0.4293   0.01179   0.00569  -0.1751  0.8735  0.0286  -1.7389   0.0000   0.0000   0.0000   0.6617
  -2.700   0.4421   0.01154   0.00541  -0.1754  0.8718  0.0288  -1.6751   0.0000   0.0000   0.0000   0.6503
  -2.600   0.4552   0.01131   0.00515  -0.1758  0.8701  0.0291  -1.6097   0.0000   0.0000   0.0000   0.6394
  -2.500   0.4685   0.01109   0.00491  -0.1762  0.8684  0.0296  -1.5434   0.0000   0.0000   0.0000   0.6291
  -2.400   0.4822   0.01090   0.00468  -0.1767  0.8668  0.0302  -1.4763   0.0000   0.0000   0.0000   0.6192
  -2.300   0.4963   0.01073   0.00447  -0.1773  0.8653  0.0311  -1.4099   0.0000   0.0000   0.0000   0.6097
  -2.200   0.5106   0.01059   0.00430  -0.1779  0.8636  0.0321  -1.3683   0.0000   0.0000   0.0000   0.6007
  -2.100   0.5251   0.01044   0.00411  -0.1786  0.8618  0.0337  -1.3344   0.0000   0.0000   0.0000   0.5922
  -2.000   0.5338   0.01026   0.00395  -0.1780  0.8597  0.0370  -1.3153   0.0000   0.0000   0.0000   0.5855
  -1.900   0.5432   0.01018   0.00388  -0.1776  0.8574  0.0410  -1.2844   0.0000   0.0000   0.0000   0.5789
  -1.800   0.5538   0.00999   0.00375  -0.1775  0.8551  0.0546  -1.2691   0.0000   0.0000   0.0000   0.5722
  -1.700   0.5648   0.00985   0.00368  -0.1775  0.8529  0.0744  -1.2332   0.0000   0.0000   0.0000   0.5657
  -1.600   0.5762   0.00977   0.00362  -0.1775  0.8507  0.0875  -1.1829   0.0000   0.0000   0.0000   0.5594
  -1.500   0.5880   0.00969   0.00357  -0.1777  0.8486  0.0991  -1.1276   0.0000   0.0000   0.0000   0.5533
  -1.400   0.6002   0.00960   0.00351  -0.1779  0.8465  0.1144  -1.0707   0.0000   0.0000   0.0000   0.5474
  -1.300   0.6125   0.00950   0.00346  -0.1781  0.8445  0.1356  -1.0124   0.0000   0.0000   0.0000   0.5417
  -1.200   0.6253   0.00935   0.00342  -0.1786  0.8426  0.1709  -0.9534   0.0000   0.0000   0.0000   0.5363
  -1.100   0.6386   0.00917   0.00338  -0.1791  0.8407  0.2241  -0.8943   0.0000   0.0000   0.0000   0.5311
  -1.000   0.6523   0.00898   0.00336  -0.1798  0.8387  0.2943  -0.8335   0.0000   0.0000   0.0000   0.5261
  -0.900   0.6659   0.00878   0.00338  -0.1806  0.8365  0.3806  -0.7731   0.0000   0.0000   0.0000   0.5214
  -0.800   0.6748   0.00859   0.00344  -0.1802  0.8343  0.4712  -0.7407   0.0000   0.0000   0.0000   0.5172
  -0.700   0.6841   0.00844   0.00351  -0.1798  0.8317  0.5494  -0.7471   0.0000   0.0000   0.0000   0.5129
  -0.600   0.6938   0.00835   0.00356  -0.1795  0.8291  0.6036  -0.7541   0.0000   0.0000   0.0000   0.5086
  -0.400   0.7144   0.00819   0.00359  -0.1790  0.8239  0.6803  -0.7690   0.0000   0.0000   0.0000   0.5002
  -0.300   0.7251   0.00813   0.00359  -0.1788  0.8214  0.7079  -0.7771   0.0000   0.0000   0.0000   0.4961
  -0.200   0.7359   0.00808   0.00358  -0.1786  0.8191  0.7329  -0.7855   0.0000   0.0000   0.0000   0.4920
  -0.100   0.7470   0.00803   0.00356  -0.1785  0.8167  0.7590  -0.7944   0.0000   0.0000   0.0000   0.4881
   0.000   0.7582   0.00798   0.00356  -0.1783  0.8144  0.7874  -0.8035   0.0000   0.0000   0.0000   0.4843
   0.100   0.7692   0.00794   0.00356  -0.1781  0.8118  0.8172  -0.8126   0.0000   0.0000   0.0000   0.4805
   0.200   0.7758   0.00789   0.00358  -0.1770  0.8092  0.8461  -0.8193   0.0000   0.0000   0.0000   0.4770
   0.300   0.7810   0.00783   0.00359  -0.1755  0.8064  0.8797  -0.8257   0.0000   0.0000   0.0000   0.4734
   0.400   0.7859   0.00773   0.00356  -0.1738  0.8033  0.9291  -0.8320   0.0000   0.0000   0.0000   0.4698
   0.500   0.7999   0.00766   0.00349  -0.1744  0.8004  1.0000  -0.8435   0.0000   0.0000   0.0000   0.4665
   0.600   0.8111   0.00767   0.00346  -0.1743  0.7974  1.0000  -0.8535   0.0000   0.0000   0.0000   0.4633
   0.700   0.8226   0.00768   0.00344  -0.1744  0.7946  1.0000  -0.8646   0.0000   0.0000   0.0000   0.4602
   0.800   0.8349   0.00769   0.00341  -0.1746  0.7918  1.0000  -0.8768   0.0000   0.0000   0.0000   0.4572
   0.900   0.8477   0.00772   0.00338  -0.1749  0.7891  1.0000  -0.8893   0.0000   0.0000   0.0000   0.4543
   1.000   0.8611   0.00777   0.00337  -0.1753  0.7861  1.0000  -0.9026   0.0000   0.0000   0.0000   0.4515
   1.100   0.8704   0.00779   0.00339  -0.1749  0.7833  1.0000  -0.9140   0.0000   0.0000   0.0000   0.4487
   1.200   0.8799   0.00781   0.00341  -0.1745  0.7801  1.0000  -0.9254   0.0000   0.0000   0.0000   0.4460
   1.300   0.8899   0.00783   0.00342  -0.1742  0.7767  1.0000  -0.9373   0.0000   0.0000   0.0000   0.4433
   1.400   0.9004   0.00784   0.00342  -0.1741  0.7733  1.0000  -0.9501   0.0000   0.0000   0.0000   0.4407
   1.500   0.9112   0.00786   0.00340  -0.1739  0.7699  1.0000  -0.9638   0.0000   0.0000   0.0000   0.4382
   1.600   0.9229   0.00787   0.00338  -0.1740  0.7665  1.0000  -0.9787   0.0000   0.0000   0.0000   0.4357
   1.700   0.9351   0.00790   0.00336  -0.1742  0.7632  1.0000  -0.9950   0.0000   0.0000   0.0000   0.4333
   1.800   0.9472   0.00795   0.00337  -0.1743  0.7597  1.0000  -1.0112   0.0000   0.0000   0.0000   0.4310
   1.900   0.9559   0.00797   0.00340  -0.1738  0.7561  1.0000  -1.0248   0.0000   0.0000   0.0000   0.4286
   2.000   0.9653   0.00799   0.00341  -0.1734  0.7522  1.0000  -1.0402   0.0000   0.0000   0.0000   0.4263
   2.100   0.9752   0.00801   0.00342  -0.1731  0.7482  1.0000  -1.0565   0.0000   0.0000   0.0000   0.4241
   2.200   0.9858   0.00803   0.00342  -0.1729  0.7443  1.0000  -1.0735   0.0000   0.0000   0.0000   0.4219
   2.300   0.9970   0.00806   0.00342  -0.1728  0.7405  1.0000  -1.0925   0.0000   0.0000   0.0000   0.4197
   2.400   1.0088   0.00810   0.00341  -0.1729  0.7366  1.0000  -1.1129   0.0000   0.0000   0.0000   0.4176
   2.500   1.0189   0.00814   0.00344  -0.1727  0.7327  1.0000  -1.1332   0.0000   0.0000   0.0000   0.4156
   2.600   1.0279   0.00816   0.00349  -0.1722  0.7283  1.0000  -1.1533   0.0000   0.0000   0.0000   0.4135
   2.700   1.0373   0.00819   0.00351  -0.1718  0.7235  1.0000  -1.1740   0.0000   0.0000   0.0000   0.4115
   2.800   1.0474   0.00822   0.00352  -0.1715  0.7186  1.0000  -1.1955   0.0000   0.0000   0.0000   0.4095
   2.900   1.0581   0.00825   0.00351  -0.1713  0.7138  1.0000  -1.2178   0.0000   0.0000   0.0000   0.4076
   3.000   1.0691   0.00831   0.00352  -0.1713  0.7093  1.0000  -1.2405   0.0000   0.0000   0.0000   0.4057
   3.100   1.0778   0.00834   0.00357  -0.1707  0.7044  1.0000  -1.2608   0.0000   0.0000   0.0000   0.4038
   3.200   1.0871   0.00837   0.00360  -0.1703  0.6988  1.0000  -1.2818   0.0000   0.0000   0.0000   0.4019
   3.300   1.0968   0.00841   0.00361  -0.1700  0.6933  1.0000  -1.3033   0.0000   0.0000   0.0000   0.4001
   3.400   1.1069   0.00847   0.00362  -0.1697  0.6879  1.0000  -1.3255   0.0000   0.0000   0.0000   0.3983
   3.500   1.1166   0.00853   0.00365  -0.1694  0.6825  1.0000  -1.3473   0.0000   0.0000   0.0000   0.3966
   3.600   1.1254   0.00857   0.00370  -0.1688  0.6763  1.0000  -1.3696   0.0000   0.0000   0.0000   0.3948
   3.700   1.1345   0.00862   0.00373  -0.1684  0.6697  1.0000  -1.3937   0.0000   0.0000   0.0000   0.3931
   3.800   1.1439   0.00869   0.00376  -0.1680  0.6631  1.0000  -1.4183   0.0000   0.0000   0.0000   0.3914
   3.900   1.1531   0.00876   0.00380  -0.1675  0.6566  1.0000  -1.4427   0.0000   0.0000   0.0000   0.3897
   4.000   1.1616   0.00882   0.00385  -0.1669  0.6491  1.0000  -1.4665   0.0000   0.0000   0.0000   0.3880
   4.100   1.1702   0.00890   0.00389  -0.1664  0.6411  1.0000  -1.4904   0.0000   0.0000   0.0000   0.3863
   4.200   1.1790   0.00900   0.00396  -0.1658  0.6337  1.0000  -1.5147   0.0000   0.0000   0.0000   0.3847
   4.300   1.1876   0.00906   0.00403  -0.1653  0.6262  1.0000  -1.5387   0.0000   0.0000   0.0000   0.3831
   4.400   1.1959   0.00915   0.00409  -0.1647  0.6180  1.0000  -1.5651   0.0000   0.0000   0.0000   0.3815
   4.500   1.2041   0.00926   0.00414  -0.1641  0.6101  1.0000  -1.5956   0.0000   0.0000   0.0000   0.3799
   4.600   1.2128   0.00934   0.00421  -0.1636  0.6030  1.0000  -1.6269   0.0000   0.0000   0.0000   0.3784
   4.700   1.2211   0.00943   0.00428  -0.1630  0.5949  1.0000  -1.6578   0.0000   0.0000   0.0000   0.3768
   4.800   1.2289   0.00955   0.00435  -0.1623  0.5867  1.0000  -1.6880   0.0000   0.0000   0.0000   0.3753
   4.900   1.2371   0.00966   0.00443  -0.1616  0.5790  1.0000  -1.7190   0.0000   0.0000   0.0000   0.3738
   5.000   1.2450   0.00976   0.00452  -0.1610  0.5701  1.0000  -1.7497   0.0000   0.0000   0.0000   0.3723
   5.100   1.2520   0.00991   0.00460  -0.1601  0.5606  1.0000  -1.7791   0.0000   0.0000   0.0000   0.3707
   5.200   1.2595   0.01002   0.00469  -0.1594  0.5513  1.0000  -1.8095   0.0000   0.0000   0.0000   0.3693
   5.300   1.2664   0.01016   0.00479  -0.1585  0.5405  1.0000  -1.8390   0.0000   0.0000   0.0000   0.3678
   5.400   1.2725   0.01033   0.00489  -0.1575  0.5303  1.0000  -1.8674   0.0000   0.0000   0.0000   0.3662
   5.500   1.2796   0.01046   0.00499  -0.1567  0.5192  1.0000  -1.8974   0.0000   0.0000   0.0000   0.3648
   5.600   1.2848   0.01064   0.00511  -0.1555  0.5083  1.0000  -1.9246   0.0000   0.0000   0.0000   0.3632
   5.700   1.2915   0.01077   0.00524  -0.1546  0.4981  1.0000  -1.9542   0.0000   0.0000   0.0000   0.3618
   5.800   1.2968   0.01094   0.00536  -0.1534  0.4874  1.0000  -1.9841   0.0000   0.0000   0.0000   0.3602
   5.900   1.3021   0.01111   0.00548  -0.1523  0.4777  1.0000  -2.0149   0.0000   0.0000   0.0000   0.3587
   6.000   1.3082   0.01127   0.00560  -0.1513  0.4668  1.0000  -2.0474   0.0000   0.0000   0.0000   0.3573
   6.200   1.3184   0.01165   0.00589  -0.1489  0.4443  1.0000  -2.1091   0.0000   0.0000   0.0000   0.3544
   6.300   1.3218   0.01189   0.00605  -0.1474  0.4317  1.0000  -2.1370   0.0000   0.0000   0.0000   0.3528
   6.400   1.3271   0.01209   0.00620  -0.1463  0.4188  1.0000  -2.1684   0.0000   0.0000   0.0000   0.3514
   6.600   1.3355   0.01258   0.00656  -0.1438  0.3917  1.0000  -2.2276   0.0000   0.0000   0.0000   0.3485
   6.700   1.3388   0.01287   0.00676  -0.1423  0.3786  1.0000  -2.2555   0.0000   0.0000   0.0000   0.3470
   6.800   1.3444   0.01309   0.00693  -0.1413  0.3655  1.0000  -2.2882   0.0000   0.0000   0.0000   0.3457
   6.900   1.3481   0.01338   0.00715  -0.1400  0.3533  1.0000  -2.3171   0.0000   0.0000   0.0000   0.3443
   7.000   1.3542   0.01359   0.00732  -0.1391  0.3414  1.0000  -2.3507   0.0000   0.0000   0.0000   0.3430
   7.100   1.3580   0.01389   0.00755  -0.1378  0.3299  1.0000  -2.3800   0.0000   0.0000   0.0000   0.3417
   7.200   1.3638   0.01411   0.00773  -0.1369  0.3194  1.0000  -2.4135   0.0000   0.0000   0.0000   0.3404
   7.300   1.3683   0.01439   0.00796  -0.1358  0.3083  1.0000  -2.4443   0.0000   0.0000   0.0000   0.3391
   7.400   1.3734   0.01465   0.00820  -0.1347  0.2984  1.0000  -2.4779   0.0000   0.0000   0.0000   0.3379
   7.500   1.3787   0.01491   0.00841  -0.1338  0.2877  1.0000  -2.5146   0.0000   0.0000   0.0000   0.3366
   7.600   1.3828   0.01523   0.00867  -0.1326  0.2776  1.0000  -2.5484   0.0000   0.0000   0.0000   0.3354
   7.700   1.3891   0.01545   0.00887  -0.1318  0.2680  1.0000  -2.5875   0.0000   0.0000   0.0000   0.3342
   7.800   1.3936   0.01576   0.00912  -0.1308  0.2577  1.0000  -2.6227   0.0000   0.0000   0.0000   0.3330
   7.900   1.3989   0.01604   0.00936  -0.1298  0.2486  1.0000  -2.6598   0.0000   0.0000   0.0000   0.3318
   8.000   1.4042   0.01632   0.00960  -0.1289  0.2387  1.0000  -2.6971   0.0000   0.0000   0.0000   0.3307
   8.200   1.4136   0.01693   0.01013  -0.1269  0.2208  1.0000  -2.7716   0.0000   0.0000   0.0000   0.3283
   8.300   1.4181   0.01725   0.01040  -0.1259  0.2117  1.0000  -2.8116   0.0000   0.0000   0.0000   0.3272
   8.400   1.4222   0.01760   0.01070  -0.1248  0.2032  1.0000  -2.8508   0.0000   0.0000   0.0000   0.3260
   8.500   1.4282   0.01786   0.01095  -0.1240  0.1956  1.0000  -2.8950   0.0000   0.0000   0.0000   0.3249
   8.600   1.4328   0.01819   0.01124  -0.1231  0.1877  1.0000  -2.9379   0.0000   0.0000   0.0000   0.3238
   8.700   1.4369   0.01856   0.01156  -0.1220  0.1800  1.0000  -2.9820   0.0000   0.0000   0.0000   0.3227
   8.800   1.4431   0.01881   0.01181  -0.1213  0.1742  1.0000  -3.0325   0.0000   0.0000   0.0000   0.3217
   8.900   1.4480   0.01913   0.01210  -0.1204  0.1677  1.0000  -3.0817   0.0000   0.0000   0.0000   0.3206
   9.000   1.4518   0.01952   0.01247  -0.1193  0.1611  1.0000  -3.1301   0.0000   0.0000   0.0000   0.3195
   9.100   1.4566   0.01985   0.01279  -0.1184  0.1555  1.0000  -3.1824   0.0000   0.0000   0.0000   0.3185
   9.200   1.4625   0.02012   0.01306  -0.1177  0.1507  1.0000  -3.2386   0.0000   0.0000   0.0000   0.3175
   9.300   1.4676   0.02046   0.01338  -0.1169  0.1454  1.0000  -3.2921   0.0000   0.0000   0.0000   0.3165
   9.400   1.4715   0.02086   0.01374  -0.1159  0.1399  1.0000  -3.3423   0.0000   0.0000   0.0000   0.3155
   9.500   1.4751   0.02128   0.01414  -0.1149  0.1342  1.0000  -3.3907   0.0000   0.0000   0.0000   0.3144
   9.600   1.4814   0.02154   0.01442  -0.1142  0.1311  1.0000  -3.4494   0.0000   0.0000   0.0000   0.3135
   9.700   1.4867   0.02185   0.01474  -0.1134  0.1272  1.0000  -3.5051   0.0000   0.0000   0.0000   0.3125
   9.800   1.4912   0.02222   0.01510  -0.1126  0.1229  1.0000  -3.5583   0.0000   0.0000   0.0000   0.3115
   9.900   1.4948   0.02266   0.01550  -0.1116  0.1185  1.0000  -3.6084   0.0000   0.0000   0.0000   0.3106
  10.000   1.4975   0.02318   0.01599  -0.1105  0.1134  1.0000  -3.6544   0.0000   0.0000   0.0000   0.3095
  10.100   1.5036   0.02346   0.01630  -0.1099  0.1110  1.0000  -3.7139   0.0000   0.0000   0.0000   0.3086
  10.200   1.5095   0.02375   0.01663  -0.1093  0.1085  1.0000  -3.7730   0.0000   0.0000   0.0000   0.3078
  10.300   1.5145   0.02411   0.01699  -0.1085  0.1056  1.0000  -3.8291   0.0000   0.0000   0.0000   0.3069
  10.400   1.5189   0.02451   0.01739  -0.1077  0.1025  1.0000  -3.8829   0.0000   0.0000   0.0000   0.3059
  10.500   1.5224   0.02498   0.01784  -0.1068  0.0993  1.0000  -3.9339   0.0000   0.0000   0.0000   0.3050
  10.600   1.5249   0.02554   0.01839  -0.1058  0.0955  1.0000  -3.9804   0.0000   0.0000   0.0000   0.3041
  10.700   1.5268   0.02613   0.01898  -0.1047  0.0919  1.0000  -4.0240   0.0000   0.0000   0.0000   0.3031
  10.800   1.5334   0.02640   0.01929  -0.1042  0.0905  1.0000  -4.0875   0.0000   0.0000   0.0000   0.3023
  10.900   1.5391   0.02672   0.01965  -0.1036  0.0886  1.0000  -4.1480   0.0000   0.0000   0.0000   0.3015
  11.000   1.5440   0.02710   0.02006  -0.1029  0.0864  1.0000  -4.2054   0.0000   0.0000   0.0000   0.3006
  11.100   1.5483   0.02754   0.02050  -0.1022  0.0840  1.0000  -4.2607   0.0000   0.0000   0.0000   0.2998
  11.200   1.5520   0.02803   0.02098  -0.1014  0.0817  1.0000  -4.3137   0.0000   0.0000   0.0000   0.2990
  11.300   1.5549   0.02859   0.02153  -0.1005  0.0792  1.0000  -4.3635   0.0000   0.0000   0.0000   0.2981
  11.400   1.5564   0.02927   0.02220  -0.0995  0.0763  1.0000  -4.4066   0.0000   0.0000   0.0000   0.2972
  11.500   1.5554   0.03014   0.02309  -0.0983  0.0733  1.0000  -4.4378   0.0000   0.0000   0.0000   0.2963
  11.600   1.5615   0.03046   0.02345  -0.0978  0.0725  1.0000  -4.5015   0.0000   0.0000   0.0000   0.2955
  11.700   1.5673   0.03081   0.02384  -0.0973  0.0714  1.0000  -4.5640   0.0000   0.0000   0.0000   0.2948
  11.800   1.5725   0.03121   0.02427  -0.0967  0.0700  1.0000  -4.6246   0.0000   0.0000   0.0000   0.2940
  11.900   1.5774   0.03163   0.02473  -0.0962  0.0685  1.0000  -4.6841   0.0000   0.0000   0.0000   0.2933
  12.000   1.5818   0.03210   0.02522  -0.0955  0.0669  1.0000  -4.7416   0.0000   0.0000   0.0000   0.2926
  12.100   1.5855   0.03263   0.02576  -0.0949  0.0653  1.0000  -4.7963   0.0000   0.0000   0.0000   0.2918
  12.200   1.5884   0.03323   0.02636  -0.0942  0.0638  1.0000  -4.8479   0.0000   0.0000   0.0000   0.2911
  12.300   1.5907   0.03389   0.02702  -0.0934  0.0622  1.0000  -4.8966   0.0000   0.0000   0.0000   0.2903
  12.400   1.5920   0.03464   0.02778  -0.0926  0.0604  1.0000  -4.9404   0.0000   0.0000   0.0000   0.2896
  12.500   1.5918   0.03555   0.02870  -0.0916  0.0585  1.0000  -4.9759   0.0000   0.0000   0.0000   0.2888
  12.600   1.5900   0.03663   0.02983  -0.0906  0.0568  1.0000  -5.0027   0.0000   0.0000   0.0000   0.2880
  12.700   1.5955   0.03703   0.03028  -0.0902  0.0563  1.0000  -5.0666   0.0000   0.0000   0.0000   0.2873
  12.800   1.6006   0.03748   0.03077  -0.0897  0.0556  1.0000  -5.1285   0.0000   0.0000   0.0000   0.2867
  12.900   1.6052   0.03797   0.03130  -0.0892  0.0548  1.0000  -5.1884   0.0000   0.0000   0.0000   0.2860
  13.000   1.6094   0.03851   0.03188  -0.0888  0.0539  1.0000  -5.2466   0.0000   0.0000   0.0000   0.2854
  13.100   1.6134   0.03908   0.03248  -0.0883  0.0529  1.0000  -5.3037   0.0000   0.0000   0.0000   0.2847
  13.200   1.6170   0.03968   0.03312  -0.0878  0.0519  1.0000  -5.3592   0.0000   0.0000   0.0000   0.2841
  13.300   1.6201   0.04034   0.03381  -0.0872  0.0510  1.0000  -5.4153   0.0000   0.0000   0.0000   0.2835
  13.400   1.6227   0.04105   0.03454  -0.0867  0.0500  1.0000  -5.4727   0.0000   0.0000   0.0000   0.2828
  13.500   1.6250   0.04179   0.03531  -0.0862  0.0490  1.0000  -5.5287   0.0000   0.0000   0.0000   0.2822
  13.600   1.6269   0.04260   0.03612  -0.0856  0.0481  1.0000  -5.5824   0.0000   0.0000   0.0000   0.2816
  13.700   1.6280   0.04348   0.03702  -0.0850  0.0470  1.0000  -5.6317   0.0000   0.0000   0.0000   0.2810
  13.800   1.6276   0.04453   0.03810  -0.0844  0.0459  1.0000  -5.6724   0.0000   0.0000   0.0000   0.2804
  13.900   1.6259   0.04574   0.03934  -0.0837  0.0448  1.0000  -5.7045   0.0000   0.0000   0.0000   0.2799
  14.000   1.6228   0.04714   0.04078  -0.0830  0.0436  1.0000  -5.7274   0.0000   0.0000   0.0000   0.2793
  14.100   1.6237   0.04812   0.04181  -0.0825  0.0429  1.0000  -5.7732   0.0000   0.0000   0.0000   0.2787
  14.200   1.6275   0.04879   0.04252  -0.0821  0.0426  1.0000  -5.8369   0.0000   0.0000   0.0000   0.2782
  14.300   1.6307   0.04951   0.04330  -0.0818  0.0421  1.0000  -5.8977   0.0000   0.0000   0.0000   0.2777
  14.400   1.6336   0.05028   0.04411  -0.0815  0.0416  1.0000  -5.9566   0.0000   0.0000   0.0000   0.2772
  14.500   1.6363   0.05109   0.04496  -0.0811  0.0409  1.0000  -6.0145   0.0000   0.0000   0.0000   0.2767
  14.600   1.6388   0.05192   0.04585  -0.0808  0.0403  1.0000  -6.0712   0.0000   0.0000   0.0000   0.2762
  14.700   1.6410   0.05280   0.04677  -0.0805  0.0396  1.0000  -6.1485   0.0000   0.0000   0.0000   0.2757
  14.800   1.6426   0.05375   0.04775  -0.0802  0.0389  1.0000  -6.2244   0.0000   0.0000   0.0000   0.2753
  14.900   1.6441   0.05472   0.04879  -0.0799  0.0383  1.0000  -6.3005   0.0000   0.0000   0.0000   0.2748
  15.000   1.6456   0.05571   0.04980  -0.0797  0.0376  1.0000  -6.3771   0.0000   0.0000   0.0000   0.2744


