xflr5 v6.61

 Calculated polar for: SG6043

 1 1 Reynolds number fixed          Mach number fixed         

 xtrf =   1.000 (top)        1.000 (bottom)
 Mach =   0.000     Re =     0.175 e 6     Ncrit =   9.000

  alpha     CL        CD       CDp       Cm    Top Xtr Bot Xtr   Cpmin    Chinge    XCp    
 ------- -------- --------- --------- -------- ------- ------- -------- --------- ---------
 -10.000  -0.3452   0.13721   0.13357  -0.0279  1.0000  0.0325  -1.5493   0.0000   0.0000   0.0000   0.1587
  -9.900  -0.3488   0.13685   0.13323  -0.0278  1.0000  0.0326  -1.5763   0.0000   0.0000   0.0000   0.1602
  -9.800  -0.3520   0.13641   0.13281  -0.0277  1.0000  0.0327  -1.6023   0.0000   0.0000   0.0000   0.1615
  -9.700  -0.3547   0.13591   0.13233  -0.0275  1.0000  0.0327  -1.6263   0.0000   0.0000   0.0000   0.1628
  -9.600  -0.3566   0.13530   0.13173  -0.0276  0.9999  0.0328  -1.6497   0.0000   0.0000   0.0000   0.1631
  -9.500  -0.3513   0.13394   0.13037  -0.0299  0.9986  0.0328  -1.6784   0.0000   0.0000   0.0000   0.1554
  -9.400  -0.3464   0.13257   0.12901  -0.0320  0.9972  0.0329  -1.7059   0.0000   0.0000   0.0000   0.1479
  -9.300  -0.3416   0.13119   0.12763  -0.0341  0.9958  0.0329  -1.7317   0.0000   0.0000   0.0000   0.1405
  -9.200  -0.3362   0.12977   0.12621  -0.0360  0.9944  0.0330  -1.7511   0.0000   0.0000   0.0000   0.1331
  -9.100  -0.3320   0.12603   0.12249  -0.0361  0.9938  0.0333  -1.7559   0.0000   0.0000   0.0000   0.1313
  -9.000  -0.3222   0.12317   0.11962  -0.0348  0.9936  0.0338  -1.6677   0.0000   0.0000   0.0000   0.1318
  -8.900  -0.3132   0.12127   0.11771  -0.0347  0.9930  0.0343  -1.6083   0.0000   0.0000   0.0000   0.1287
  -8.800  -0.3057   0.11972   0.11615  -0.0353  0.9922  0.0347  -1.5711   0.0000   0.0000   0.0000   0.1238
  -8.700  -0.2986   0.11829   0.11472  -0.0363  0.9915  0.0351  -1.5452   0.0000   0.0000   0.0000   0.1177
  -8.600  -0.2930   0.11696   0.11339  -0.0372  0.9903  0.0356  -1.5284   0.0000   0.0000   0.0000   0.1123
  -8.500  -0.2888   0.11571   0.11215  -0.0378  0.9888  0.0361  -1.5182   0.0000   0.0000   0.0000   0.1081
  -8.400  -0.2845   0.11447   0.11091  -0.0386  0.9871  0.0366  -1.5115   0.0000   0.0000   0.0000   0.1033
  -8.300  -0.2801   0.11323   0.10967  -0.0395  0.9855  0.0371  -1.5079   0.0000   0.0000   0.0000   0.0978
  -8.200  -0.2754   0.11195   0.10840  -0.0406  0.9838  0.0377  -1.5071   0.0000   0.0000   0.0000   0.0913
  -8.100  -0.2705   0.11065   0.10710  -0.0419  0.9822  0.0383  -1.5091   0.0000   0.0000   0.0000   0.0839
  -8.000  -0.2652   0.10932   0.10575  -0.0433  0.9806  0.0390  -1.5143   0.0000   0.0000   0.0000   0.0753
  -7.900  -0.2597   0.10797   0.10440  -0.0450  0.9792  0.0398  -1.5232   0.0000   0.0000   0.0000   0.0653
  -7.800  -0.2539   0.10663   0.10306  -0.0469  0.9777  0.0407  -1.5380   0.0000   0.0000   0.0000   0.0535
  -7.700  -0.2479   0.10537   0.10180  -0.0494  0.9764  0.0416  -1.5650   0.0000   0.0000   0.0000   0.0389
  -7.600  -0.2428   0.10455   0.10098  -0.0534  0.9748  0.0427  -1.6265   0.0000   0.0000   0.0000   0.0180
  -7.500  -0.2473   0.10422   0.10067  -0.0538  0.9706  0.0431  -1.6690   0.0000   0.0000   0.0000   0.0207
  -7.400  -0.2501   0.10389   0.10036  -0.0549  0.9667  0.0434  -1.7131   0.0000   0.0000   0.0000   0.0195
  -7.300  -0.2510   0.10343   0.09991  -0.0565  0.9634  0.0436  -1.7545   0.0000   0.0000   0.0000   0.0139
  -7.200  -0.2503   0.10275   0.09925  -0.0587  0.9605  0.0437  -1.7937   0.0000   0.0000   0.0000   0.0049
  -7.100  -0.2441   0.10161   0.09811  -0.0618  0.9584  0.0439  -1.8225   0.0000   0.0000   0.0000  -0.0141
  -7.000  -0.2344   0.09996   0.09644  -0.0661  0.9568  0.0440  -1.8510   0.0000   0.0000   0.0000  -0.0430
  -6.900  -0.2363   0.09555   0.09207  -0.0647  0.9565  0.0449  -1.8651   0.0000   0.0000   0.0000  -0.0348
  -6.800  -0.2281   0.09377   0.09029  -0.0621  0.9567  0.0457  -1.7587   0.0000   0.0000   0.0000  -0.0339
  -6.700  -0.2174   0.09231   0.08881  -0.0621  0.9563  0.0465  -1.6863   0.0000   0.0000   0.0000  -0.0476
  -6.600  -0.2082   0.09094   0.08744  -0.0631  0.9556  0.0472  -1.6462   0.0000   0.0000   0.0000  -0.0656
  -6.500  -0.2180   0.09072   0.08725  -0.0607  0.9501  0.0472  -1.6574   0.0000   0.0000   0.0000  -0.0396
  -6.400  -0.2180   0.08987   0.08641  -0.0603  0.9469  0.0475  -1.6465   0.0000   0.0000   0.0000  -0.0377
  -6.300  -0.2146   0.08880   0.08534  -0.0607  0.9445  0.0480  -1.6309   0.0000   0.0000   0.0000  -0.0440
  -6.200  -0.2096   0.08759   0.08414  -0.0616  0.9424  0.0486  -1.6152   0.0000   0.0000   0.0000  -0.0555
  -6.100  -0.2031   0.08626   0.08280  -0.0631  0.9406  0.0492  -1.6005   0.0000   0.0000   0.0000  -0.0720
  -6.000  -0.1954   0.08481   0.08135  -0.0650  0.9389  0.0500  -1.5871   0.0000   0.0000   0.0000  -0.0943
  -5.900  -0.1864   0.08324   0.07977  -0.0673  0.9375  0.0508  -1.5756   0.0000   0.0000   0.0000  -0.1233
  -5.800  -0.1761   0.08154   0.07807  -0.0702  0.9362  0.0518  -1.5664   0.0000   0.0000   0.0000  -0.1611
  -5.700  -0.1643   0.07972   0.07623  -0.0736  0.9350  0.0529  -1.5608   0.0000   0.0000   0.0000  -0.2115
  -5.600  -0.1692   0.07910   0.07563  -0.0726  0.9304  0.0532  -1.5704   0.0000   0.0000   0.0000  -0.1919
  -5.500  -0.1726   0.07833   0.07487  -0.0722  0.9255  0.0537  -1.5801   0.0000   0.0000   0.0000  -0.1803
  -5.400  -0.1672   0.07690   0.07344  -0.0743  0.9224  0.0546  -1.5896   0.0000   0.0000   0.0000  -0.2066
  -5.300  -0.1561   0.07508   0.07159  -0.0789  0.9197  0.0561  -1.6163   0.0000   0.0000   0.0000  -0.2681
  -5.200  -0.1264   0.07265   0.06902  -0.0916  0.9169  0.0583  -1.7167   0.0000   0.0000   0.0000  -0.4900
  -5.100  -0.1087   0.07085   0.06712  -0.0965  0.9155  0.0587  -1.7321   0.0000   0.0000   0.0000  -0.6555
  -5.000  -0.0926   0.06893   0.06511  -0.1005  0.9144  0.0589  -1.7388   0.0000   0.0000   0.0000  -0.8560
  -4.900  -0.0862   0.06357   0.05972  -0.1048  0.9134  0.0599  -1.8117   0.0000   0.0000   0.0000  -0.9882
  -4.800  -0.0796   0.06131   0.05751  -0.1052  0.9128  0.0608  -1.7645   0.0000   0.0000   0.0000  -1.0953
  -4.700  -0.0702   0.05999   0.05621  -0.1056  0.9122  0.0615  -1.6997   0.0000   0.0000   0.0000  -1.2796
  -4.600  -0.0594   0.05882   0.05504  -0.1063  0.9115  0.0623  -1.6359   0.0000   0.0000   0.0000  -1.5682
  -4.500  -0.0768   0.05896   0.05520  -0.1020  0.9031  0.0621  -1.6686   0.0000   0.0000   0.0000  -1.1007
  -4.400  -0.0720   0.05812   0.05436  -0.1016  0.9005  0.0627  -1.6267   0.0000   0.0000   0.0000  -1.1842
  -4.300  -0.0645   0.05716   0.05338  -0.1019  0.8985  0.0636  -1.5833   0.0000   0.0000   0.0000  -1.3549
  -4.200  -0.0549   0.05605   0.05227  -0.1028  0.8968  0.0646  -1.5413   0.0000   0.0000   0.0000  -1.6542
  -4.100  -0.0430   0.05480   0.05098  -0.1043  0.8954  0.0659  -1.5022   0.0000   0.0000   0.0000  -2.2147
  -4.000  -0.0290   0.05337   0.04951  -0.1064  0.8941  0.0676  -1.4673   0.0000   0.0000   0.0000  -3.4731
  -3.900  -0.0126   0.05176   0.04783  -0.1092  0.8930  0.0698  -1.4510   0.0000   0.0000   0.0000  -8.5633
  -3.800   0.0083   0.04999   0.04593  -0.1131  0.8921  0.0734  -1.4629   0.0000   0.0000   0.0000  14.0278
  -3.700   0.0449   0.05083   0.04630  -0.1185  0.8910  0.0784  -1.5019   0.0000   0.0000   0.0000   2.9218
  -3.600   0.0562   0.04460   0.04001  -0.1233  0.8907  0.0812  -1.5621   0.0000   0.0000   0.0000   2.4722
  -3.500   0.0689   0.04319   0.03865  -0.1243  0.8900  0.0826  -1.5227   0.0000   0.0000   0.0000   2.0758
  -3.400   0.0830   0.04207   0.03754  -0.1255  0.8893  0.0842  -1.4852   0.0000   0.0000   0.0000   1.7803
  -3.300   0.0982   0.04103   0.03647  -0.1270  0.8887  0.0863  -1.4527   0.0000   0.0000   0.0000   1.5565
  -3.200   0.1148   0.03999   0.03538  -0.1286  0.8881  0.0890  -1.4264   0.0000   0.0000   0.0000   1.3820
  -3.100   0.1333   0.03891   0.03419  -0.1307  0.8876  0.0929  -1.4097   0.0000   0.0000   0.0000   1.2400
  -3.000   0.1188   0.03921   0.03451  -0.1264  0.8798  0.0925  -1.4176   0.0000   0.0000   0.0000   1.3246
  -2.800   0.1997   0.03078   0.02487  -0.1387  0.8857  0.0639  -1.6849   0.0000   0.0000   0.0000   0.9512
  -2.700   0.1869   0.03183   0.02575  -0.1336  0.8767  0.0599  -1.7406   0.0000   0.0000   0.0000   0.9715
  -2.600   0.2022   0.02984   0.02367  -0.1349  0.8758  0.0553  -1.7420   0.0000   0.0000   0.0000   0.9238
  -2.500   0.2191   0.02837   0.02198  -0.1362  0.8748  0.0527  -1.7478   0.0000   0.0000   0.0000   0.8776
  -2.400   0.2364   0.02709   0.02043  -0.1374  0.8739  0.0505  -1.7556   0.0000   0.0000   0.0000   0.8364
  -2.300   0.2533   0.02603   0.01911  -0.1383  0.8730  0.0490  -1.7545   0.0000   0.0000   0.0000   0.8009
  -2.200   0.2693   0.02525   0.01815  -0.1391  0.8719  0.0484  -1.7308   0.0000   0.0000   0.0000   0.7708
  -2.100   0.2851   0.02461   0.01739  -0.1398  0.8709  0.0482  -1.6935   0.0000   0.0000   0.0000   0.7444
  -2.000   0.3009   0.02405   0.01674  -0.1406  0.8700  0.0484  -1.6481   0.0000   0.0000   0.0000   0.7208
  -1.900   0.3169   0.02355   0.01616  -0.1414  0.8691  0.0489  -1.5969   0.0000   0.0000   0.0000   0.6994
  -1.800   0.3332   0.02308   0.01564  -0.1422  0.8683  0.0498  -1.5418   0.0000   0.0000   0.0000   0.6798
  -1.700   0.3493   0.02264   0.01517  -0.1430  0.8674  0.0510  -1.4855   0.0000   0.0000   0.0000   0.6620
  -1.600   0.3657   0.02223   0.01472  -0.1438  0.8666  0.0528  -1.4287   0.0000   0.0000   0.0000   0.6457
  -1.500   0.3823   0.02183   0.01430  -0.1447  0.8659  0.0551  -1.3723   0.0000   0.0000   0.0000   0.6305
  -1.400   0.3991   0.02149   0.01390  -0.1456  0.8652  0.0578  -1.3334   0.0000   0.0000   0.0000   0.6166
  -1.300   0.4164   0.02083   0.01326  -0.1467  0.8647  0.0633  -1.3239   0.0000   0.0000   0.0000   0.6039
  -1.200   0.4334   0.02057   0.01304  -0.1477  0.8641  0.0734  -1.2818   0.0000   0.0000   0.0000   0.5923
  -1.100   0.4512   0.02006   0.01261  -0.1490  0.8637  0.0943  -1.2685   0.0000   0.0000   0.0000   0.5814
  -1.000   0.4692   0.01962   0.01222  -0.1502  0.8632  0.1202  -1.2349   0.0000   0.0000   0.0000   0.5712
  -0.900   0.4872   0.01926   0.01195  -0.1516  0.8628  0.1470  -1.1769   0.0000   0.0000   0.0000   0.5618
  -0.800   0.4680   0.02009   0.01276  -0.1462  0.8525  0.1394  -1.1984   0.0000   0.0000   0.0000   0.5632
  -0.700   0.4807   0.01988   0.01266  -0.1466  0.8504  0.1680  -1.1468   0.0000   0.0000   0.0000   0.5555
  -0.600   0.4956   0.01950   0.01252  -0.1475  0.8489  0.2275  -1.0903   0.0000   0.0000   0.0000   0.5479
  -0.500   0.5114   0.01865   0.01257  -0.1488  0.8481  0.4769  -1.0295   0.0000   0.0000   0.0000   0.5411
  -0.400   0.5229   0.01819   0.01261  -0.1485  0.8468  0.6471  -0.9748   0.0000   0.0000   0.0000   0.5341
  -0.300   0.5328   0.01787   0.01253  -0.1477  0.8455  0.7347  -0.9234   0.0000   0.0000   0.0000   0.5272
  -0.200   0.5421   0.01755   0.01237  -0.1467  0.8442  0.8109  -0.8741   0.0000   0.0000   0.0000   0.5204
  -0.100   0.5548   0.01709   0.01206  -0.1463  0.8431  1.0000  -0.8151   0.0000   0.0000   0.0000   0.5133
   0.000   0.5724   0.01694   0.01182  -0.1474  0.8423  1.0000  -0.7460   0.0000   0.0000   0.0000   0.5069
   0.100   0.5905   0.01679   0.01158  -0.1486  0.8416  1.0000  -0.7014   0.0000   0.0000   0.0000   0.5009
   0.200   0.6090   0.01663   0.01135  -0.1498  0.8409  1.0000  -0.7143   0.0000   0.0000   0.0000   0.4952
   0.300   0.6277   0.01647   0.01112  -0.1511  0.8402  1.0000  -0.7275   0.0000   0.0000   0.0000   0.4898
   0.400   0.6468   0.01632   0.01090  -0.1526  0.8396  1.0000  -0.7409   0.0000   0.0000   0.0000   0.4847
   0.500   0.6663   0.01617   0.01069  -0.1540  0.8390  1.0000  -0.7548   0.0000   0.0000   0.0000   0.4799
   0.600   0.6859   0.01601   0.01048  -0.1555  0.8383  1.0000  -0.7695   0.0000   0.0000   0.0000   0.4754
   0.700   0.7051   0.01586   0.01027  -0.1569  0.8376  1.0000  -0.7839   0.0000   0.0000   0.0000   0.4710
   0.800   0.7242   0.01571   0.01007  -0.1583  0.8369  1.0000  -0.7984   0.0000   0.0000   0.0000   0.4670
   1.000   0.7124   0.01646   0.01081  -0.1520  0.8230  1.0000  -0.7972   0.0000   0.0000   0.0000   0.4615
   1.100   0.7292   0.01632   0.01063  -0.1530  0.8215  1.0000  -0.8116   0.0000   0.0000   0.0000   0.4578
   1.200   0.7471   0.01617   0.01044  -0.1541  0.8201  1.0000  -0.8273   0.0000   0.0000   0.0000   0.4542
   1.300   0.7652   0.01601   0.01025  -0.1553  0.8189  1.0000  -0.8432   0.0000   0.0000   0.0000   0.4507
   1.400   0.7832   0.01584   0.01004  -0.1565  0.8177  1.0000  -0.8598   0.0000   0.0000   0.0000   0.4474
   1.500   0.8016   0.01565   0.00983  -0.1577  0.8165  1.0000  -0.8773   0.0000   0.0000   0.0000   0.4442
   1.600   0.8201   0.01547   0.00961  -0.1589  0.8153  1.0000  -0.8949   0.0000   0.0000   0.0000   0.4411
   1.700   0.8392   0.01527   0.00939  -0.1603  0.8141  1.0000  -0.9137   0.0000   0.0000   0.0000   0.4382
   1.800   0.8587   0.01509   0.00917  -0.1617  0.8129  1.0000  -0.9337   0.0000   0.0000   0.0000   0.4354
   1.900   0.8784   0.01492   0.00897  -0.1632  0.8117  1.0000  -0.9547   0.0000   0.0000   0.0000   0.4328
   2.000   0.8692   0.01537   0.00945  -0.1594  0.8041  1.0000  -0.9535   0.0000   0.0000   0.0000   0.4302
   2.100   0.8783   0.01539   0.00946  -0.1589  0.8001  1.0000  -0.9671   0.0000   0.0000   0.0000   0.4277
   2.200   0.8920   0.01530   0.00935  -0.1592  0.7973  1.0000  -0.9846   0.0000   0.0000   0.0000   0.4251
   2.300   0.9075   0.01516   0.00919  -0.1599  0.7949  1.0000  -1.0040   0.0000   0.0000   0.0000   0.4227
   2.400   0.9243   0.01499   0.00900  -0.1608  0.7928  1.0000  -1.0263   0.0000   0.0000   0.0000   0.4204
   2.500   0.9423   0.01481   0.00880  -0.1619  0.7908  1.0000  -1.0497   0.0000   0.0000   0.0000   0.4181
   2.600   0.9610   0.01462   0.00858  -0.1631  0.7889  1.0000  -1.0758   0.0000   0.0000   0.0000   0.4159
   2.700   0.9802   0.01444   0.00838  -0.1645  0.7869  1.0000  -1.1034   0.0000   0.0000   0.0000   0.4139
   2.800   0.9863   0.01455   0.00849  -0.1635  0.7825  1.0000  -1.1186   0.0000   0.0000   0.0000   0.4117
   2.900   0.9896   0.01468   0.00863  -0.1619  0.7769  1.0000  -1.1324   0.0000   0.0000   0.0000   0.4094
   3.000   1.0004   0.01463   0.00861  -0.1617  0.7728  1.0000  -1.1545   0.0000   0.0000   0.0000   0.4073
   3.100   1.0150   0.01451   0.00847  -0.1621  0.7694  1.0000  -1.1809   0.0000   0.0000   0.0000   0.4053
   3.200   1.0312   0.01436   0.00830  -0.1629  0.7664  1.0000  -1.2092   0.0000   0.0000   0.0000   0.4034
   3.300   1.0485   0.01420   0.00811  -0.1639  0.7636  1.0000  -1.2389   0.0000   0.0000   0.0000   0.4016
   3.400   1.0664   0.01407   0.00795  -0.1650  0.7608  1.0000  -1.2695   0.0000   0.0000   0.0000   0.3999
   3.500   1.0690   0.01421   0.00812  -0.1633  0.7552  1.0000  -1.2829   0.0000   0.0000   0.0000   0.3978
   3.600   1.0761   0.01425   0.00817  -0.1624  0.7498  1.0000  -1.3015   0.0000   0.0000   0.0000   0.3959
   3.700   1.0878   0.01419   0.00810  -0.1623  0.7453  1.0000  -1.3254   0.0000   0.0000   0.0000   0.3940
   3.800   1.1021   0.01407   0.00797  -0.1627  0.7412  1.0000  -1.3531   0.0000   0.0000   0.0000   0.3924
   3.900   1.1182   0.01394   0.00780  -0.1635  0.7374  1.0000  -1.3860   0.0000   0.0000   0.0000   0.3908
   4.000   1.1309   0.01391   0.00775  -0.1636  0.7330  1.0000  -1.4148   0.0000   0.0000   0.0000   0.3891
   4.100   1.1347   0.01400   0.00788  -0.1621  0.7267  1.0000  -1.4323   0.0000   0.0000   0.0000   0.3872
   4.200   1.1440   0.01398   0.00787  -0.1616  0.7210  1.0000  -1.4569   0.0000   0.0000   0.0000   0.3854
   4.300   1.1564   0.01391   0.00781  -0.1616  0.7159  1.0000  -1.4859   0.0000   0.0000   0.0000   0.3838
   4.400   1.1722   0.01380   0.00766  -0.1623  0.7113  1.0000  -1.5193   0.0000   0.0000   0.0000   0.3824
   4.500   1.1801   0.01385   0.00772  -0.1616  0.7055  1.0000  -1.5426   0.0000   0.0000   0.0000   0.3807
   4.600   1.1862   0.01389   0.00779  -0.1605  0.6987  1.0000  -1.5676   0.0000   0.0000   0.0000   0.3790
   4.700   1.1964   0.01387   0.00775  -0.1601  0.6923  1.0000  -1.6013   0.0000   0.0000   0.0000   0.3774
   4.800   1.2109   0.01379   0.00762  -0.1606  0.6866  1.0000  -1.6424   0.0000   0.0000   0.0000   0.3760
   4.900   1.2190   0.01384   0.00768  -0.1599  0.6800  1.0000  -1.6730   0.0000   0.0000   0.0000   0.3744
   5.000   1.2253   0.01389   0.00775  -0.1588  0.6724  1.0000  -1.7008   0.0000   0.0000   0.0000   0.3727
   5.100   1.2362   0.01387   0.00771  -0.1586  0.6652  1.0000  -1.7365   0.0000   0.0000   0.0000   0.3713
   5.200   1.2492   0.01386   0.00763  -0.1588  0.6583  1.0000  -1.7761   0.0000   0.0000   0.0000   0.3700
   5.300   1.2539   0.01395   0.00776  -0.1574  0.6500  1.0000  -1.8015   0.0000   0.0000   0.0000   0.3683
   5.400   1.2629   0.01399   0.00778  -0.1569  0.6418  1.0000  -1.8346   0.0000   0.0000   0.0000   0.3668
   5.600   1.2805   0.01411   0.00786  -0.1557  0.6253  1.0000  -1.9005   0.0000   0.0000   0.0000   0.3639
   5.700   1.2887   0.01418   0.00790  -0.1550  0.6164  1.0000  -1.9325   0.0000   0.0000   0.0000   0.3625
   5.800   1.2995   0.01425   0.00795  -0.1549  0.6081  1.0000  -1.9695   0.0000   0.0000   0.0000   0.3612
   5.900   1.3051   0.01436   0.00809  -0.1537  0.5991  1.0000  -1.9996   0.0000   0.0000   0.0000   0.3597
   6.000   1.3130   0.01446   0.00815  -0.1530  0.5898  1.0000  -2.0357   0.0000   0.0000   0.0000   0.3583
   6.100   1.3217   0.01457   0.00822  -0.1524  0.5807  1.0000  -2.0733   0.0000   0.0000   0.0000   0.3569
   6.200   1.3276   0.01469   0.00834  -0.1513  0.5704  1.0000  -2.1055   0.0000   0.0000   0.0000   0.3555
   6.300   1.3355   0.01483   0.00841  -0.1506  0.5599  1.0000  -2.1421   0.0000   0.0000   0.0000   0.3541
   6.400   1.3412   0.01497   0.00854  -0.1495  0.5492  1.0000  -2.1744   0.0000   0.0000   0.0000   0.3527
   6.500   1.3474   0.01513   0.00865  -0.1485  0.5376  1.0000  -2.2078   0.0000   0.0000   0.0000   0.3513
   6.600   1.3534   0.01530   0.00878  -0.1474  0.5264  1.0000  -2.2410   0.0000   0.0000   0.0000   0.3499
   6.700   1.3586   0.01548   0.00891  -0.1463  0.5143  1.0000  -2.2727   0.0000   0.0000   0.0000   0.3484
   6.800   1.3640   0.01568   0.00905  -0.1451  0.5028  1.0000  -2.3051   0.0000   0.0000   0.0000   0.3470
   6.900   1.3683   0.01587   0.00921  -0.1438  0.4906  1.0000  -2.3351   0.0000   0.0000   0.0000   0.3456
   7.000   1.3726   0.01609   0.00936  -0.1424  0.4792  1.0000  -2.3656   0.0000   0.0000   0.0000   0.3441
   7.100   1.3763   0.01629   0.00954  -0.1410  0.4669  1.0000  -2.3946   0.0000   0.0000   0.0000   0.3426
   7.200   1.3796   0.01657   0.00972  -0.1395  0.4551  1.0000  -2.4231   0.0000   0.0000   0.0000   0.3412
   7.300   1.3830   0.01678   0.00992  -0.1380  0.4423  1.0000  -2.4516   0.0000   0.0000   0.0000   0.3397
   7.500   1.3885   0.01734   0.01040  -0.1350  0.4167  1.0000  -2.5132   0.0000   0.0000   0.0000   0.3368
   7.600   1.3903   0.01768   0.01064  -0.1333  0.4043  1.0000  -2.5420   0.0000   0.0000   0.0000   0.3353
   7.700   1.3934   0.01796   0.01089  -0.1319  0.3906  1.0000  -2.5737   0.0000   0.0000   0.0000   0.3340
   7.800   1.3948   0.01833   0.01116  -0.1302  0.3783  1.0000  -2.6017   0.0000   0.0000   0.0000   0.3325
   7.900   1.3977   0.01864   0.01144  -0.1287  0.3648  1.0000  -2.6328   0.0000   0.0000   0.0000   0.3312
   8.000   1.3987   0.01905   0.01175  -0.1270  0.3530  1.0000  -2.6601   0.0000   0.0000   0.0000   0.3297
   8.100   1.4019   0.01937   0.01205  -0.1257  0.3399  1.0000  -2.6919   0.0000   0.0000   0.0000   0.3284
   8.300   1.4063   0.02014   0.01271  -0.1228  0.3159  1.0000  -2.7557   0.0000   0.0000   0.0000   0.3258
   8.400   1.4072   0.02061   0.01308  -0.1212  0.3048  1.0000  -2.7859   0.0000   0.0000   0.0000   0.3245
   8.500   1.4104   0.02097   0.01343  -0.1200  0.2932  1.0000  -2.8219   0.0000   0.0000   0.0000   0.3232
   8.600   1.4118   0.02143   0.01381  -0.1186  0.2824  1.0000  -2.8536   0.0000   0.0000   0.0000   0.3220
   8.700   1.4145   0.02185   0.01420  -0.1173  0.2720  1.0000  -2.8887   0.0000   0.0000   0.0000   0.3208
   8.800   1.4170   0.02229   0.01459  -0.1161  0.2615  1.0000  -2.9272   0.0000   0.0000   0.0000   0.3196
   8.900   1.4181   0.02282   0.01504  -0.1146  0.2526  1.0000  -2.9614   0.0000   0.0000   0.0000   0.3184
   9.000   1.4221   0.02320   0.01542  -0.1136  0.2428  1.0000  -3.0042   0.0000   0.0000   0.0000   0.3173
   9.100   1.4239   0.02371   0.01587  -0.1123  0.2341  1.0000  -3.0407   0.0000   0.0000   0.0000   0.3161
   9.200   1.4261   0.02422   0.01634  -0.1111  0.2261  1.0000  -3.0781   0.0000   0.0000   0.0000   0.3150
   9.300   1.4300   0.02464   0.01679  -0.1101  0.2176  1.0000  -3.1209   0.0000   0.0000   0.0000   0.3139
   9.400   1.4318   0.02518   0.01727  -0.1089  0.2100  1.0000  -3.1576   0.0000   0.0000   0.0000   0.3128
   9.500   1.4333   0.02577   0.01780  -0.1077  0.2030  1.0000  -3.1971   0.0000   0.0000   0.0000   0.3117
   9.600   1.4380   0.02617   0.01823  -0.1069  0.1957  1.0000  -3.2472   0.0000   0.0000   0.0000   0.3107
   9.700   1.4407   0.02669   0.01872  -0.1058  0.1889  1.0000  -3.2912   0.0000   0.0000   0.0000   0.3097
   9.800   1.4417   0.02734   0.01930  -0.1046  0.1828  1.0000  -3.3296   0.0000   0.0000   0.0000   0.3086
   9.900   1.4457   0.02782   0.01979  -0.1037  0.1769  1.0000  -3.3773   0.0000   0.0000   0.0000   0.3077
  10.000   1.4500   0.02826   0.02026  -0.1029  0.1710  1.0000  -3.4269   0.0000   0.0000   0.0000   0.3067
  10.100   1.4527   0.02881   0.02078  -0.1020  0.1657  1.0000  -3.4715   0.0000   0.0000   0.0000   0.3058
  10.200   1.4540   0.02948   0.02139  -0.1009  0.1607  1.0000  -3.5111   0.0000   0.0000   0.0000   0.3048
  10.300   1.4569   0.03011   0.02199  -0.0999  0.1557  1.0000  -3.5549   0.0000   0.0000   0.0000   0.3039
  10.400   1.4620   0.03052   0.02247  -0.0993  0.1514  1.0000  -3.6075   0.0000   0.0000   0.0000   0.3030
  10.500   1.4661   0.03100   0.02299  -0.0985  0.1471  1.0000  -3.6569   0.0000   0.0000   0.0000   0.3021
  10.600   1.4689   0.03159   0.02356  -0.0976  0.1431  1.0000  -3.7021   0.0000   0.0000   0.0000   0.3012
  10.700   1.4708   0.03228   0.02420  -0.0967  0.1392  1.0000  -3.7439   0.0000   0.0000   0.0000   0.3003
  10.800   1.4728   0.03315   0.02499  -0.0957  0.1344  1.0000  -3.7834   0.0000   0.0000   0.0000   0.2994
  10.900   1.4778   0.03356   0.02549  -0.0951  0.1317  1.0000  -3.8361   0.0000   0.0000   0.0000   0.2986
  11.000   1.4823   0.03404   0.02603  -0.0944  0.1285  1.0000  -3.8871   0.0000   0.0000   0.0000   0.2978
  11.100   1.4863   0.03457   0.02663  -0.0937  0.1251  1.0000  -3.9364   0.0000   0.0000   0.0000   0.2969
  11.200   1.4894   0.03515   0.02723  -0.0930  0.1219  1.0000  -3.9835   0.0000   0.0000   0.0000   0.2961
  11.300   1.4917   0.03584   0.02789  -0.0922  0.1188  1.0000  -4.0276   0.0000   0.0000   0.0000   0.2953
  11.400   1.4936   0.03668   0.02867  -0.0913  0.1152  1.0000  -4.0689   0.0000   0.0000   0.0000   0.2945
  11.500   1.4980   0.03744   0.02942  -0.0907  0.1118  1.0000  -4.1169   0.0000   0.0000   0.0000   0.2937
  11.600   1.5022   0.03793   0.03001  -0.0901  0.1097  1.0000  -4.1672   0.0000   0.0000   0.0000   0.2930
  11.700   1.5063   0.03848   0.03062  -0.0895  0.1073  1.0000  -4.2169   0.0000   0.0000   0.0000   0.2922
  11.800   1.5101   0.03907   0.03126  -0.0888  0.1048  1.0000  -4.2658   0.0000   0.0000   0.0000   0.2914
  11.900   1.5134   0.03970   0.03192  -0.0882  0.1025  1.0000  -4.3135   0.0000   0.0000   0.0000   0.2907
  12.000   1.5163   0.04036   0.03260  -0.0875  0.1002  1.0000  -4.3603   0.0000   0.0000   0.0000   0.2900
  12.100   1.5189   0.04109   0.03333  -0.0869  0.0980  1.0000  -4.4057   0.0000   0.0000   0.0000   0.2893
  12.200   1.5217   0.04192   0.03413  -0.0862  0.0955  1.0000  -4.4507   0.0000   0.0000   0.0000   0.2886
  12.300   1.5290   0.04289   0.03504  -0.0859  0.0918  1.0000  -4.5053   0.0000   0.0000   0.0000   0.2879
  12.400   1.5319   0.04348   0.03572  -0.0853  0.0907  1.0000  -4.5517   0.0000   0.0000   0.0000   0.2872
  12.500   1.5350   0.04410   0.03642  -0.0847  0.0892  1.0000  -4.5985   0.0000   0.0000   0.0000   0.2865
  12.600   1.5383   0.04474   0.03714  -0.0841  0.0876  1.0000  -4.6454   0.0000   0.0000   0.0000   0.2858
  12.700   1.5414   0.04542   0.03788  -0.0835  0.0858  1.0000  -4.6918   0.0000   0.0000   0.0000   0.2851
  12.800   1.5444   0.04613   0.03863  -0.0830  0.0841  1.0000  -4.7379   0.0000   0.0000   0.0000   0.2845
  12.900   1.5472   0.04685   0.03940  -0.0824  0.0825  1.0000  -4.7838   0.0000   0.0000   0.0000   0.2838
  13.000   1.5498   0.04760   0.04017  -0.0819  0.0810  1.0000  -4.8295   0.0000   0.0000   0.0000   0.2832
  13.100   1.5522   0.04837   0.04100  -0.0813  0.0795  1.0000  -4.8749   0.0000   0.0000   0.0000   0.2826
  13.200   1.5547   0.04920   0.04183  -0.0808  0.0779  1.0000  -4.9203   0.0000   0.0000   0.0000   0.2820
  13.300   1.5586   0.05014   0.04275  -0.0804  0.0758  1.0000  -4.9678   0.0000   0.0000   0.0000   0.2814
  13.400   1.5676   0.05128   0.04389  -0.0802  0.0729  1.0000  -5.0236   0.0000   0.0000   0.0000   0.2808
  13.500   1.5693   0.05201   0.04470  -0.0797  0.0722  1.0000  -5.0648   0.0000   0.0000   0.0000   0.2802
  13.600   1.5708   0.05280   0.04558  -0.0791  0.0713  1.0000  -5.1047   0.0000   0.0000   0.0000   0.2796
  13.700   1.5722   0.05365   0.04651  -0.0786  0.0703  1.0000  -5.1433   0.0000   0.0000   0.0000   0.2790
  13.800   1.5738   0.05451   0.04746  -0.0781  0.0691  1.0000  -5.1873   0.0000   0.0000   0.0000   0.2785
  13.900   1.5756   0.05540   0.04842  -0.0777  0.0679  1.0000  -5.2330   0.0000   0.0000   0.0000   0.2779
  14.000   1.5776   0.05629   0.04938  -0.0772  0.0668  1.0000  -5.2791   0.0000   0.0000   0.0000   0.2773
  14.100   1.5794   0.05720   0.05035  -0.0768  0.0656  1.0000  -5.3247   0.0000   0.0000   0.0000   0.2768
  14.200   1.5808   0.05813   0.05133  -0.0764  0.0645  1.0000  -5.3699   0.0000   0.0000   0.0000   0.2763
  14.300   1.5822   0.05908   0.05231  -0.0760  0.0634  1.0000  -5.4153   0.0000   0.0000   0.0000   0.2758
  14.400   1.5835   0.06003   0.05330  -0.0757  0.0624  1.0000  -5.4610   0.0000   0.0000   0.0000   0.2753
  14.500   1.5847   0.06102   0.05431  -0.0753  0.0614  1.0000  -5.5068   0.0000   0.0000   0.0000   0.2749
  14.600   1.5861   0.06206   0.05537  -0.0750  0.0603  1.0000  -5.5526   0.0000   0.0000   0.0000   0.2744
  14.700   1.5888   0.06322   0.05653  -0.0747  0.0589  1.0000  -5.6000   0.0000   0.0000   0.0000   0.2740
  14.800   1.5941   0.06521   0.05860  -0.0745  0.0567  1.0000  -5.6475   0.0000   0.0000   0.0000   0.2735
  14.900   1.5934   0.06627   0.05975  -0.0741  0.0563  1.0000  -5.7011   0.0000   0.0000   0.0000   0.2731
  15.000   1.5925   0.06740   0.06097  -0.0738  0.0558  1.0000  -5.7530   0.0000   0.0000   0.0000   0.2727


