xflr5 v6.61

 Calculated polar for: SG6043

 1 1 Reynolds number fixed          Mach number fixed         

 xtrf =   1.000 (top)        1.000 (bottom)
 Mach =   0.000     Re =     0.250 e 6     Ncrit =   9.000

  alpha     CL        CD       CDp       Cm    Top Xtr Bot Xtr   Cpmin    Chinge    XCp    
 ------- -------- --------- --------- -------- ------- ------- -------- --------- ---------
 -10.000  -0.2840   0.12776   0.12458  -0.0438  0.9916  0.0245  -1.5661   0.0000   0.0000   0.0000   0.0820
  -9.900  -0.2806   0.12652   0.12334  -0.0462  0.9905  0.0246  -1.6114   0.0000   0.0000   0.0000   0.0717
  -9.800  -0.2776   0.12522   0.12204  -0.0477  0.9888  0.0246  -1.6456   0.0000   0.0000   0.0000   0.0645
  -9.700  -0.2740   0.12387   0.12070  -0.0492  0.9872  0.0247  -1.6749   0.0000   0.0000   0.0000   0.0566
  -9.600  -0.2701   0.12249   0.11932  -0.0507  0.9856  0.0247  -1.7037   0.0000   0.0000   0.0000   0.0483
  -9.500  -0.2658   0.12106   0.11789  -0.0523  0.9841  0.0247  -1.7287   0.0000   0.0000   0.0000   0.0392
  -9.400  -0.2610   0.11960   0.11644  -0.0538  0.9827  0.0248  -1.7493   0.0000   0.0000   0.0000   0.0295
  -9.300  -0.2560   0.11811   0.11494  -0.0555  0.9814  0.0248  -1.7705   0.0000   0.0000   0.0000   0.0190
  -9.200  -0.2516   0.11473   0.11158  -0.0543  0.9812  0.0253  -1.7228   0.0000   0.0000   0.0000   0.0195
  -9.100  -0.2430   0.11306   0.10990  -0.0540  0.9806  0.0256  -1.6493   0.0000   0.0000   0.0000   0.0126
  -9.000  -0.2356   0.11162   0.10846  -0.0545  0.9798  0.0258  -1.6033   0.0000   0.0000   0.0000   0.0031
  -8.900  -0.2286   0.11025   0.10709  -0.0554  0.9790  0.0261  -1.5704   0.0000   0.0000   0.0000  -0.0082
  -8.800  -0.2216   0.10890   0.10574  -0.0566  0.9781  0.0265  -1.5462   0.0000   0.0000   0.0000  -0.0213
  -8.700  -0.2147   0.10753   0.10437  -0.0579  0.9773  0.0269  -1.5285   0.0000   0.0000   0.0000  -0.0361
  -8.600  -0.2077   0.10615   0.10297  -0.0594  0.9766  0.0273  -1.5165   0.0000   0.0000   0.0000  -0.0526
  -8.500  -0.2007   0.10475   0.10157  -0.0610  0.9759  0.0278  -1.5094   0.0000   0.0000   0.0000  -0.0711
  -8.400  -0.1935   0.10332   0.10013  -0.0627  0.9752  0.0284  -1.5071   0.0000   0.0000   0.0000  -0.0918
  -8.300  -0.1863   0.10186   0.09868  -0.0646  0.9746  0.0290  -1.5099   0.0000   0.0000   0.0000  -0.1150
  -8.200  -0.1878   0.10099   0.09782  -0.0640  0.9709  0.0294  -1.5191   0.0000   0.0000   0.0000  -0.1084
  -8.100  -0.1860   0.09989   0.09672  -0.0645  0.9681  0.0300  -1.5314   0.0000   0.0000   0.0000  -0.1143
  -8.000  -0.1827   0.09866   0.09550  -0.0656  0.9659  0.0307  -1.5523   0.0000   0.0000   0.0000  -0.1273
  -7.900  -0.1791   0.09743   0.09427  -0.0677  0.9637  0.0315  -1.5983   0.0000   0.0000   0.0000  -0.1461
  -7.800  -0.1763   0.09637   0.09322  -0.0714  0.9612  0.0323  -1.6891   0.0000   0.0000   0.0000  -0.1730
  -7.700  -0.1714   0.09520   0.09205  -0.0749  0.9592  0.0326  -1.7595   0.0000   0.0000   0.0000  -0.2052
  -7.600  -0.1654   0.09384   0.09070  -0.0779  0.9577  0.0328  -1.8042   0.0000   0.0000   0.0000  -0.2397
  -7.500  -0.1586   0.09241   0.08927  -0.0805  0.9566  0.0329  -1.8310   0.0000   0.0000   0.0000  -0.2772
  -7.400  -0.1515   0.09089   0.08774  -0.0832  0.9555  0.0329  -1.8553   0.0000   0.0000   0.0000  -0.3196
  -7.100  -0.1632   0.08650   0.08341  -0.0825  0.9428  0.0333  -1.9597   0.0000   0.0000   0.0000  -0.2732
  -7.000  -0.1564   0.08471   0.08162  -0.0802  0.9433  0.0341  -1.8436   0.0000   0.0000   0.0000  -0.2811
  -6.900  -0.1460   0.08376   0.08067  -0.0795  0.9431  0.0348  -1.7312   0.0000   0.0000   0.0000  -0.3135
  -6.800  -0.1385   0.08282   0.07972  -0.0797  0.9420  0.0355  -1.6690   0.0000   0.0000   0.0000  -0.3454
  -6.700  -0.1320   0.08177   0.07867  -0.0805  0.9407  0.0362  -1.6322   0.0000   0.0000   0.0000  -0.3802
  -6.600  -0.1259   0.08060   0.07751  -0.0816  0.9392  0.0369  -1.6095   0.0000   0.0000   0.0000  -0.4200
  -6.500  -0.1191   0.07929   0.07619  -0.0833  0.9379  0.0376  -1.5950   0.0000   0.0000   0.0000  -0.4714
  -6.400  -0.1106   0.07774   0.07463  -0.0856  0.9367  0.0383  -1.5850   0.0000   0.0000   0.0000  -0.5478
  -6.300  -0.1007   0.07600   0.07290  -0.0884  0.9357  0.0390  -1.5795   0.0000   0.0000   0.0000  -0.6536
  -6.200  -0.0897   0.07414   0.07102  -0.0918  0.9347  0.0399  -1.5789   0.0000   0.0000   0.0000  -0.8016
  -6.100  -0.1042   0.07431   0.07122  -0.0879  0.9270  0.0397  -1.5950   0.0000   0.0000   0.0000  -0.6179
  -6.000  -0.1010   0.07302   0.06994  -0.0892  0.9235  0.0403  -1.6034   0.0000   0.0000   0.0000  -0.6572
  -5.900  -0.0938   0.07138   0.06829  -0.0921  0.9210  0.0411  -1.6189   0.0000   0.0000   0.0000  -0.7569
  -5.800  -0.0812   0.06921   0.06610  -0.0979  0.9186  0.0424  -1.6695   0.0000   0.0000   0.0000  -0.9837
  -5.700  -0.0578   0.06643   0.06324  -0.1081  0.9165  0.0436  -1.7600   0.0000   0.0000   0.0000  -1.6582
  -5.600  -0.0414   0.06421   0.06095  -0.1132  0.9153  0.0438  -1.7847   0.0000   0.0000   0.0000  -2.5412
  -5.500  -0.0261   0.06197   0.05863  -0.1175  0.9143  0.0439  -1.8033   0.0000   0.0000   0.0000  -4.3363
  -5.400  -0.0112   0.05975   0.05633  -0.1213  0.9135  0.0440  -1.8173   0.0000   0.0000   0.0000  -10.7494
  -5.300  -0.0092   0.05430   0.05090  -0.1247  0.9126  0.0452  -1.8880   0.0000   0.0000   0.0000  -13.4790
  -5.200   0.0003   0.05306   0.04967  -0.1253  0.9122  0.0457  -1.8181   0.0000   0.0000   0.0000  399.6865
  -5.000  -0.0083   0.05227   0.04889  -0.1212  0.9020  0.0461  -1.7926   0.0000   0.0000   0.0000  -14.5484
  -4.900  -0.0016   0.05133   0.04794  -0.1214  0.9000  0.0465  -1.7441   0.0000   0.0000   0.0000  -78.6407
  -4.800   0.0072   0.05034   0.04693  -0.1221  0.8984  0.0471  -1.6929   0.0000   0.0000   0.0000  17.4234
  -4.700   0.0174   0.04924   0.04582  -0.1231  0.8970  0.0477  -1.6447   0.0000   0.0000   0.0000   7.4355
  -4.600   0.0292   0.04800   0.04455  -0.1246  0.8957  0.0485  -1.6006   0.0000   0.0000   0.0000   4.5811
  -4.500   0.0425   0.04661   0.04312  -0.1265  0.8947  0.0495  -1.5615   0.0000   0.0000   0.0000   3.2706
  -4.400   0.0572   0.04508   0.04153  -0.1288  0.8938  0.0508  -1.5283   0.0000   0.0000   0.0000   2.5328
  -4.300   0.0735   0.04341   0.03978  -0.1315  0.8930  0.0524  -1.5222   0.0000   0.0000   0.0000   2.0629
  -4.200   0.0927   0.04164   0.03787  -0.1346  0.8923  0.0550  -1.5396   0.0000   0.0000   0.0000   1.7218
  -4.100   0.1205   0.04205   0.03795  -0.1377  0.8917  0.0587  -1.5647   0.0000   0.0000   0.0000   1.4069
  -4.000   0.1378   0.04080   0.03654  -0.1398  0.8911  0.0589  -1.5693   0.0000   0.0000   0.0000   1.2774
  -3.900   0.1495   0.03468   0.03029  -0.1446  0.8907  0.0616  -1.6524   0.0000   0.0000   0.0000   1.2287
  -3.800   0.1632   0.03356   0.02918  -0.1457  0.8903  0.0627  -1.6112   0.0000   0.0000   0.0000   1.1531
  -3.600   0.2055   0.02721   0.02208  -0.1504  0.8898  0.0422  -1.9414   0.0000   0.0000   0.0000   0.9905
  -3.500   0.2233   0.02497   0.01961  -0.1525  0.8896  0.0398  -1.9840   0.0000   0.0000   0.0000   0.9409
  -3.400   0.2409   0.02369   0.01813  -0.1540  0.8893  0.0395  -1.9821   0.0000   0.0000   0.0000   0.8965
  -3.300   0.2581   0.02310   0.01741  -0.1552  0.8890  0.0410  -1.9329   0.0000   0.0000   0.0000   0.8581
  -3.200   0.2755   0.02227   0.01642  -0.1565  0.8887  0.0415  -1.8956   0.0000   0.0000   0.0000   0.8241
  -3.100   0.2933   0.02107   0.01503  -0.1580  0.8884  0.0405  -1.8795   0.0000   0.0000   0.0000   0.7941
  -3.000   0.3112   0.01998   0.01374  -0.1593  0.8882  0.0394  -1.8614   0.0000   0.0000   0.0000   0.7671
  -2.900   0.3290   0.01906   0.01266  -0.1606  0.8879  0.0386  -1.8329   0.0000   0.0000   0.0000   0.7429
  -2.800   0.3468   0.01831   0.01177  -0.1618  0.8876  0.0382  -1.7931   0.0000   0.0000   0.0000   0.7211
  -2.700   0.3269   0.01886   0.01236  -0.1558  0.8781  0.0382  -1.8111   0.0000   0.0000   0.0000   0.7310
  -2.600   0.3395   0.01834   0.01174  -0.1560  0.8765  0.0380  -1.7734   0.0000   0.0000   0.0000   0.7136
  -2.500   0.3534   0.01784   0.01116  -0.1564  0.8753  0.0380  -1.7270   0.0000   0.0000   0.0000   0.6964
  -2.400   0.3682   0.01738   0.01064  -0.1570  0.8742  0.0382  -1.6738   0.0000   0.0000   0.0000   0.6801
  -2.300   0.3834   0.01695   0.01017  -0.1578  0.8733  0.0387  -1.6163   0.0000   0.0000   0.0000   0.6647
  -2.200   0.3992   0.01655   0.00973  -0.1586  0.8724  0.0393  -1.5557   0.0000   0.0000   0.0000   0.6502
  -2.100   0.4152   0.01617   0.00932  -0.1594  0.8716  0.0402  -1.4933   0.0000   0.0000   0.0000   0.6367
  -2.000   0.4314   0.01582   0.00894  -0.1603  0.8708  0.0415  -1.4301   0.0000   0.0000   0.0000   0.6242
  -1.900   0.4477   0.01552   0.00861  -0.1613  0.8700  0.0431  -1.3682   0.0000   0.0000   0.0000   0.6125
  -1.800   0.4643   0.01506   0.00813  -0.1623  0.8693  0.0456  -1.3490   0.0000   0.0000   0.0000   0.6016
  -1.700   0.4808   0.01468   0.00778  -0.1634  0.8685  0.0506  -1.3175   0.0000   0.0000   0.0000   0.5917
  -1.600   0.4972   0.01444   0.00752  -0.1643  0.8677  0.0580  -1.2875   0.0000   0.0000   0.0000   0.5821
  -1.500   0.5144   0.01400   0.00715  -0.1655  0.8670  0.0830  -1.2708   0.0000   0.0000   0.0000   0.5733
  -1.400   0.5310   0.01377   0.00698  -0.1667  0.8663  0.1042  -1.2149   0.0000   0.0000   0.0000   0.5651
  -1.300   0.5476   0.01352   0.00680  -0.1678  0.8655  0.1259  -1.1531   0.0000   0.0000   0.0000   0.5575
  -1.200   0.5644   0.01327   0.00664  -0.1690  0.8647  0.1542  -1.0883   0.0000   0.0000   0.0000   0.5503
  -1.100   0.5813   0.01295   0.00650  -0.1703  0.8639  0.2060  -1.0225   0.0000   0.0000   0.0000   0.5437
  -1.000   0.5982   0.01252   0.00642  -0.1717  0.8631  0.3140  -0.9556   0.0000   0.0000   0.0000   0.5377
  -0.900   0.6143   0.01201   0.00646  -0.1730  0.8621  0.4990  -0.8904   0.0000   0.0000   0.0000   0.5321
  -0.800   0.6134   0.01208   0.00671  -0.1706  0.8576  0.5593  -0.8655   0.0000   0.0000   0.0000   0.5285
  -0.700   0.6190   0.01202   0.00682  -0.1694  0.8541  0.6206  -0.8247   0.0000   0.0000   0.0000   0.5239
  -0.600   0.6277   0.01190   0.00685  -0.1687  0.8515  0.6740  -0.7761   0.0000   0.0000   0.0000   0.5189
  -0.500   0.6377   0.01177   0.00684  -0.1683  0.8494  0.7180  -0.7249   0.0000   0.0000   0.0000   0.5138
  -0.400   0.6486   0.01163   0.00678  -0.1680  0.8474  0.7557  -0.7299   0.0000   0.0000   0.0000   0.5087
  -0.300   0.6594   0.01147   0.00670  -0.1676  0.8456  0.7934  -0.7378   0.0000   0.0000   0.0000   0.5038
  -0.200   0.6693   0.01129   0.00659  -0.1669  0.8439  0.8352  -0.7457   0.0000   0.0000   0.0000   0.4989
  -0.100   0.6782   0.01109   0.00646  -0.1660  0.8422  0.8873  -0.7532   0.0000   0.0000   0.0000   0.4941
   0.000   0.6960   0.01086   0.00625  -0.1670  0.8409  1.0000  -0.7656   0.0000   0.0000   0.0000   0.4893
   0.100   0.7124   0.01080   0.00612  -0.1680  0.8395  1.0000  -0.7775   0.0000   0.0000   0.0000   0.4850
   0.200   0.7289   0.01076   0.00601  -0.1691  0.8380  1.0000  -0.7895   0.0000   0.0000   0.0000   0.4809
   0.300   0.7428   0.01077   0.00597  -0.1696  0.8360  1.0000  -0.8001   0.0000   0.0000   0.0000   0.4772
   0.400   0.7464   0.01088   0.00608  -0.1681  0.8320  1.0000  -0.8052   0.0000   0.0000   0.0000   0.4739
   0.500   0.7549   0.01093   0.00610  -0.1675  0.8286  1.0000  -0.8133   0.0000   0.0000   0.0000   0.4705
   0.600   0.7661   0.01093   0.00607  -0.1675  0.8257  1.0000  -0.8230   0.0000   0.0000   0.0000   0.4671
   0.700   0.7788   0.01091   0.00601  -0.1677  0.8232  1.0000  -0.8340   0.0000   0.0000   0.0000   0.4637
   0.800   0.7925   0.01087   0.00593  -0.1681  0.8208  1.0000  -0.8462   0.0000   0.0000   0.0000   0.4604
   0.900   0.8069   0.01082   0.00584  -0.1687  0.8187  1.0000  -0.8597   0.0000   0.0000   0.0000   0.4572
   1.000   0.8219   0.01076   0.00574  -0.1694  0.8166  1.0000  -0.8736   0.0000   0.0000   0.0000   0.4541
   1.100   0.8371   0.01071   0.00565  -0.1701  0.8146  1.0000  -0.8880   0.0000   0.0000   0.0000   0.4511
   1.200   0.8526   0.01069   0.00558  -0.1709  0.8125  1.0000  -0.9035   0.0000   0.0000   0.0000   0.4482
   1.300   0.8630   0.01073   0.00560  -0.1707  0.8095  1.0000  -0.9155   0.0000   0.0000   0.0000   0.4455
   1.400   0.8695   0.01079   0.00567  -0.1697  0.8056  1.0000  -0.9249   0.0000   0.0000   0.0000   0.4427
   1.500   0.8789   0.01081   0.00568  -0.1693  0.8019  1.0000  -0.9368   0.0000   0.0000   0.0000   0.4401
   1.600   0.8902   0.01081   0.00565  -0.1693  0.7986  1.0000  -0.9508   0.0000   0.0000   0.0000   0.4374
   1.700   0.9027   0.01078   0.00560  -0.1695  0.7956  1.0000  -0.9660   0.0000   0.0000   0.0000   0.4349
   1.800   0.9162   0.01074   0.00553  -0.1698  0.7928  1.0000  -0.9832   0.0000   0.0000   0.0000   0.4324
   1.900   0.9301   0.01071   0.00546  -0.1703  0.7902  1.0000  -1.0009   0.0000   0.0000   0.0000   0.4300
   2.000   0.9449   0.01069   0.00539  -0.1709  0.7876  1.0000  -1.0193   0.0000   0.0000   0.0000   0.4277
   2.100   0.9566   0.01071   0.00540  -0.1710  0.7843  1.0000  -1.0369   0.0000   0.0000   0.0000   0.4254
   2.200   0.9632   0.01076   0.00546  -0.1700  0.7800  1.0000  -1.0503   0.0000   0.0000   0.0000   0.4230
   2.300   0.9723   0.01078   0.00547  -0.1695  0.7758  1.0000  -1.0660   0.0000   0.0000   0.0000   0.4208
   2.400   0.9832   0.01077   0.00545  -0.1694  0.7719  1.0000  -1.0847   0.0000   0.0000   0.0000   0.4186
   2.500   0.9953   0.01075   0.00540  -0.1694  0.7683  1.0000  -1.1054   0.0000   0.0000   0.0000   0.4164
   2.600   1.0083   0.01072   0.00534  -0.1697  0.7650  1.0000  -1.1277   0.0000   0.0000   0.0000   0.4144
   2.700   1.0228   0.01071   0.00531  -0.1703  0.7618  1.0000  -1.1538   0.0000   0.0000   0.0000   0.4124
   2.800   1.0326   0.01075   0.00534  -0.1699  0.7579  1.0000  -1.1748   0.0000   0.0000   0.0000   0.4104
   2.900   1.0399   0.01079   0.00540  -0.1691  0.7532  1.0000  -1.1932   0.0000   0.0000   0.0000   0.4083
   3.000   1.0491   0.01080   0.00541  -0.1686  0.7485  1.0000  -1.2139   0.0000   0.0000   0.0000   0.4063
   3.100   1.0598   0.01080   0.00539  -0.1684  0.7442  1.0000  -1.2363   0.0000   0.0000   0.0000   0.4044
   3.200   1.0719   0.01078   0.00534  -0.1685  0.7401  1.0000  -1.2603   0.0000   0.0000   0.0000   0.4025
   3.300   1.0858   0.01078   0.00529  -0.1689  0.7362  1.0000  -1.2865   0.0000   0.0000   0.0000   0.4008
   3.400   1.0943   0.01082   0.00533  -0.1683  0.7313  1.0000  -1.3067   0.0000   0.0000   0.0000   0.3989
   3.500   1.1018   0.01085   0.00538  -0.1675  0.7259  1.0000  -1.3259   0.0000   0.0000   0.0000   0.3970
   3.600   1.1110   0.01086   0.00539  -0.1670  0.7206  1.0000  -1.3471   0.0000   0.0000   0.0000   0.3952
   3.700   1.1222   0.01087   0.00537  -0.1669  0.7156  1.0000  -1.3727   0.0000   0.0000   0.0000   0.3935
   3.800   1.1351   0.01087   0.00532  -0.1672  0.7109  1.0000  -1.4017   0.0000   0.0000   0.0000   0.3919
   3.900   1.1432   0.01092   0.00538  -0.1665  0.7054  1.0000  -1.4246   0.0000   0.0000   0.0000   0.3901
   4.000   1.1509   0.01096   0.00543  -0.1658  0.6993  1.0000  -1.4472   0.0000   0.0000   0.0000   0.3884
   4.100   1.1605   0.01098   0.00543  -0.1654  0.6931  1.0000  -1.4724   0.0000   0.0000   0.0000   0.3867
   4.200   1.1719   0.01100   0.00544  -0.1653  0.6873  1.0000  -1.5000   0.0000   0.0000   0.0000   0.3851
   4.300   1.1813   0.01104   0.00547  -0.1649  0.6812  1.0000  -1.5250   0.0000   0.0000   0.0000   0.3835
   4.400   1.1889   0.01110   0.00554  -0.1641  0.6743  1.0000  -1.5478   0.0000   0.0000   0.0000   0.3818
   4.500   1.1981   0.01114   0.00555  -0.1636  0.6672  1.0000  -1.5785   0.0000   0.0000   0.0000   0.3802
   4.600   1.2089   0.01119   0.00554  -0.1634  0.6604  1.0000  -1.6133   0.0000   0.0000   0.0000   0.3787
   4.700   1.2163   0.01125   0.00562  -0.1626  0.6530  1.0000  -1.6426   0.0000   0.0000   0.0000   0.3771
   4.800   1.2243   0.01132   0.00567  -0.1619  0.6451  1.0000  -1.6731   0.0000   0.0000   0.0000   0.3756
   4.900   1.2337   0.01139   0.00569  -0.1615  0.6375  1.0000  -1.7061   0.0000   0.0000   0.0000   0.3741
   5.000   1.2422   0.01147   0.00576  -0.1609  0.6299  1.0000  -1.7378   0.0000   0.0000   0.0000   0.3726
   5.100   1.2497   0.01155   0.00584  -0.1601  0.6215  1.0000  -1.7679   0.0000   0.0000   0.0000   0.3710
   5.200   1.2582   0.01165   0.00589  -0.1595  0.6133  1.0000  -1.8000   0.0000   0.0000   0.0000   0.3696
   5.300   1.2668   0.01175   0.00596  -0.1590  0.6057  1.0000  -1.8322   0.0000   0.0000   0.0000   0.3681
   5.400   1.2742   0.01184   0.00605  -0.1582  0.5972  1.0000  -1.8626   0.0000   0.0000   0.0000   0.3666
   5.500   1.2821   0.01196   0.00612  -0.1575  0.5884  1.0000  -1.8940   0.0000   0.0000   0.0000   0.3652
   5.600   1.2899   0.01209   0.00621  -0.1568  0.5798  1.0000  -1.9255   0.0000   0.0000   0.0000   0.3638
   5.700   1.2968   0.01220   0.00635  -0.1559  0.5700  1.0000  -1.9554   0.0000   0.0000   0.0000   0.3623
   5.800   1.3038   0.01235   0.00643  -0.1550  0.5599  1.0000  -1.9875   0.0000   0.0000   0.0000   0.3609
   5.900   1.3104   0.01248   0.00655  -0.1541  0.5497  1.0000  -2.0208   0.0000   0.0000   0.0000   0.3594
   6.000   1.3165   0.01264   0.00666  -0.1531  0.5385  1.0000  -2.0535   0.0000   0.0000   0.0000   0.3580
   6.100   1.3226   0.01281   0.00677  -0.1521  0.5279  1.0000  -2.0863   0.0000   0.0000   0.0000   0.3565
   6.200   1.3284   0.01297   0.00690  -0.1510  0.5163  1.0000  -2.1184   0.0000   0.0000   0.0000   0.3551
   6.300   1.3336   0.01318   0.00703  -0.1498  0.5055  1.0000  -2.1498   0.0000   0.0000   0.0000   0.3536
   6.400   1.3390   0.01332   0.00717  -0.1487  0.4944  1.0000  -2.1815   0.0000   0.0000   0.0000   0.3522
   6.500   1.3431   0.01354   0.00731  -0.1473  0.4835  1.0000  -2.2110   0.0000   0.0000   0.0000   0.3507
   6.600   1.3481   0.01371   0.00746  -0.1461  0.4724  1.0000  -2.2421   0.0000   0.0000   0.0000   0.3492
   6.700   1.3518   0.01394   0.00762  -0.1446  0.4606  1.0000  -2.2710   0.0000   0.0000   0.0000   0.3477
   6.800   1.3559   0.01416   0.00779  -0.1433  0.4490  1.0000  -2.3007   0.0000   0.0000   0.0000   0.3463
   6.900   1.3592   0.01440   0.00798  -0.1418  0.4362  1.0000  -2.3289   0.0000   0.0000   0.0000   0.3448
   7.000   1.3627   0.01465   0.00817  -0.1404  0.4239  1.0000  -2.3575   0.0000   0.0000   0.0000   0.3433
   7.100   1.3658   0.01492   0.00837  -0.1389  0.4105  1.0000  -2.3853   0.0000   0.0000   0.0000   0.3419
   7.200   1.3691   0.01520   0.00859  -0.1375  0.3978  1.0000  -2.4138   0.0000   0.0000   0.0000   0.3404
   7.300   1.3721   0.01549   0.00882  -0.1360  0.3844  1.0000  -2.4415   0.0000   0.0000   0.0000   0.3390
   7.400   1.3755   0.01578   0.00908  -0.1347  0.3719  1.0000  -2.4719   0.0000   0.0000   0.0000   0.3376
   7.500   1.3783   0.01610   0.00933  -0.1332  0.3591  1.0000  -2.5028   0.0000   0.0000   0.0000   0.3363
   7.600   1.3816   0.01641   0.00958  -0.1319  0.3473  1.0000  -2.5348   0.0000   0.0000   0.0000   0.3349
   7.700   1.3848   0.01673   0.00985  -0.1305  0.3348  1.0000  -2.5666   0.0000   0.0000   0.0000   0.3336
   7.800   1.3879   0.01707   0.01013  -0.1292  0.3236  1.0000  -2.5986   0.0000   0.0000   0.0000   0.3323
   7.900   1.3917   0.01739   0.01040  -0.1280  0.3115  1.0000  -2.6320   0.0000   0.0000   0.0000   0.3310
   8.000   1.3945   0.01776   0.01071  -0.1266  0.3010  1.0000  -2.6630   0.0000   0.0000   0.0000   0.3297
   8.100   1.3990   0.01806   0.01098  -0.1256  0.2898  1.0000  -2.6984   0.0000   0.0000   0.0000   0.3285
   8.200   1.4011   0.01847   0.01132  -0.1242  0.2797  1.0000  -2.7280   0.0000   0.0000   0.0000   0.3272
   8.300   1.4058   0.01878   0.01161  -0.1232  0.2696  1.0000  -2.7677   0.0000   0.0000   0.0000   0.3261
   8.400   1.4090   0.01916   0.01194  -0.1220  0.2594  1.0000  -2.8040   0.0000   0.0000   0.0000   0.3248
   8.500   1.4122   0.01955   0.01229  -0.1208  0.2502  1.0000  -2.8402   0.0000   0.0000   0.0000   0.3236
   8.600   1.4167   0.01989   0.01260  -0.1198  0.2404  1.0000  -2.8802   0.0000   0.0000   0.0000   0.3225
   8.700   1.4190   0.02034   0.01299  -0.1185  0.2313  1.0000  -2.9163   0.0000   0.0000   0.0000   0.3213
   8.800   1.4233   0.02070   0.01333  -0.1175  0.2227  1.0000  -2.9605   0.0000   0.0000   0.0000   0.3202
   8.900   1.4270   0.02109   0.01369  -0.1165  0.2138  1.0000  -3.0031   0.0000   0.0000   0.0000   0.3191
   9.000   1.4288   0.02160   0.01412  -0.1152  0.2057  1.0000  -3.0400   0.0000   0.0000   0.0000   0.3180
   9.100   1.4339   0.02193   0.01446  -0.1144  0.1981  1.0000  -3.0871   0.0000   0.0000   0.0000   0.3169
   9.200   1.4379   0.02234   0.01486  -0.1134  0.1903  1.0000  -3.1328   0.0000   0.0000   0.0000   0.3159
   9.300   1.4398   0.02286   0.01532  -0.1122  0.1832  1.0000  -3.1747   0.0000   0.0000   0.0000   0.3148
   9.400   1.4442   0.02325   0.01571  -0.1113  0.1769  1.0000  -3.2247   0.0000   0.0000   0.0000   0.3138
   9.500   1.4488   0.02363   0.01609  -0.1104  0.1705  1.0000  -3.2760   0.0000   0.0000   0.0000   0.3128
   9.600   1.4519   0.02410   0.01653  -0.1094  0.1645  1.0000  -3.3223   0.0000   0.0000   0.0000   0.3118
   9.700   1.4536   0.02469   0.01706  -0.1082  0.1586  1.0000  -3.3633   0.0000   0.0000   0.0000   0.3107
   9.800   1.4588   0.02505   0.01745  -0.1075  0.1540  1.0000  -3.4169   0.0000   0.0000   0.0000   0.3097
   9.900   1.4638   0.02543   0.01785  -0.1067  0.1492  1.0000  -3.4700   0.0000   0.0000   0.0000   0.3088
  10.000   1.4674   0.02590   0.01830  -0.1058  0.1446  1.0000  -3.5187   0.0000   0.0000   0.0000   0.3079
  10.100   1.4697   0.02646   0.01883  -0.1048  0.1401  1.0000  -3.5627   0.0000   0.0000   0.0000   0.3069
  10.200   1.4707   0.02714   0.01947  -0.1036  0.1352  1.0000  -3.6010   0.0000   0.0000   0.0000   0.3059
  10.300   1.4762   0.02750   0.01987  -0.1030  0.1320  1.0000  -3.6567   0.0000   0.0000   0.0000   0.3050
  10.400   1.4817   0.02787   0.02028  -0.1023  0.1285  1.0000  -3.7125   0.0000   0.0000   0.0000   0.3041
  10.500   1.4859   0.02832   0.02075  -0.1015  0.1247  1.0000  -3.7641   0.0000   0.0000   0.0000   0.3032
  10.600   1.4888   0.02887   0.02127  -0.1007  0.1211  1.0000  -3.8115   0.0000   0.0000   0.0000   0.3023
  10.700   1.4906   0.02951   0.02189  -0.0997  0.1175  1.0000  -3.8543   0.0000   0.0000   0.0000   0.3014
  10.800   1.4909   0.03033   0.02267  -0.0985  0.1133  1.0000  -3.8895   0.0000   0.0000   0.0000   0.3005
  11.000   1.5016   0.03111   0.02358  -0.0973  0.1084  1.0000  -4.0023   0.0000   0.0000   0.0000   0.2988
  11.100   1.5062   0.03157   0.02408  -0.0967  0.1057  1.0000  -4.0559   0.0000   0.0000   0.0000   0.2980
  11.200   1.5098   0.03210   0.02463  -0.0960  0.1030  1.0000  -4.1063   0.0000   0.0000   0.0000   0.2972
  11.300   1.5126   0.03271   0.02523  -0.0952  0.1004  1.0000  -4.1538   0.0000   0.0000   0.0000   0.2964
  11.400   1.5145   0.03339   0.02590  -0.0943  0.0977  1.0000  -4.1978   0.0000   0.0000   0.0000   0.2956
  11.500   1.5151   0.03424   0.02672  -0.0934  0.0946  1.0000  -4.2347   0.0000   0.0000   0.0000   0.2947
  11.600   1.5161   0.03511   0.02760  -0.0924  0.0918  1.0000  -4.2714   0.0000   0.0000   0.0000   0.2939
  11.700   1.5213   0.03552   0.02807  -0.0919  0.0904  1.0000  -4.3288   0.0000   0.0000   0.0000   0.2932
  11.800   1.5259   0.03600   0.02861  -0.0913  0.0887  1.0000  -4.3837   0.0000   0.0000   0.0000   0.2924
  11.900   1.5300   0.03653   0.02918  -0.0907  0.0867  1.0000  -4.4366   0.0000   0.0000   0.0000   0.2917
  12.000   1.5338   0.03709   0.02978  -0.0901  0.0848  1.0000  -4.4886   0.0000   0.0000   0.0000   0.2910
  12.100   1.5373   0.03768   0.03040  -0.0895  0.0829  1.0000  -4.5398   0.0000   0.0000   0.0000   0.2903
  12.200   1.5402   0.03834   0.03107  -0.0889  0.0811  1.0000  -4.5886   0.0000   0.0000   0.0000   0.2895
  12.300   1.5422   0.03909   0.03182  -0.0882  0.0793  1.0000  -4.6336   0.0000   0.0000   0.0000   0.2888
  12.400   1.5433   0.03995   0.03267  -0.0875  0.0774  1.0000  -4.6739   0.0000   0.0000   0.0000   0.2881
  12.500   1.5435   0.04097   0.03369  -0.0867  0.0751  1.0000  -4.7077   0.0000   0.0000   0.0000   0.2874
  12.600   1.5448   0.04199   0.03473  -0.0859  0.0731  1.0000  -4.7435   0.0000   0.0000   0.0000   0.2867
  12.700   1.5492   0.04250   0.03531  -0.0855  0.0722  1.0000  -4.7991   0.0000   0.0000   0.0000   0.2860
  12.800   1.5534   0.04306   0.03593  -0.0850  0.0712  1.0000  -4.8532   0.0000   0.0000   0.0000   0.2854
  12.900   1.5570   0.04367   0.03660  -0.0845  0.0700  1.0000  -4.9051   0.0000   0.0000   0.0000   0.2848
  13.000   1.5602   0.04434   0.03733  -0.0840  0.0687  1.0000  -4.9554   0.0000   0.0000   0.0000   0.2841
  13.100   1.5632   0.04503   0.03807  -0.0835  0.0674  1.0000  -5.0048   0.0000   0.0000   0.0000   0.2835
  13.200   1.5661   0.04574   0.03883  -0.0831  0.0661  1.0000  -5.0538   0.0000   0.0000   0.0000   0.2829
  13.300   1.5688   0.04648   0.03960  -0.0826  0.0649  1.0000  -5.1025   0.0000   0.0000   0.0000   0.2823
  13.400   1.5713   0.04726   0.04040  -0.0821  0.0637  1.0000  -5.1502   0.0000   0.0000   0.0000   0.2817
  13.500   1.5730   0.04811   0.04128  -0.0817  0.0625  1.0000  -5.1946   0.0000   0.0000   0.0000   0.2812
  13.600   1.5741   0.04905   0.04224  -0.0812  0.0613  1.0000  -5.2360   0.0000   0.0000   0.0000   0.2806
  13.700   1.5748   0.05009   0.04328  -0.0807  0.0599  1.0000  -5.2736   0.0000   0.0000   0.0000   0.2801
  13.800   1.5751   0.05129   0.04448  -0.0801  0.0583  1.0000  -5.3107   0.0000   0.0000   0.0000   0.2795
  13.900   1.5766   0.05250   0.04573  -0.0795  0.0566  1.0000  -5.3491   0.0000   0.0000   0.0000   0.2789
  14.000   1.5795   0.05323   0.04653  -0.0792  0.0561  1.0000  -5.4050   0.0000   0.0000   0.0000   0.2784
  14.100   1.5820   0.05402   0.04738  -0.0789  0.0554  1.0000  -5.4587   0.0000   0.0000   0.0000   0.2779
  14.200   1.5842   0.05486   0.04830  -0.0785  0.0547  1.0000  -5.5105   0.0000   0.0000   0.0000   0.2774
  14.300   1.5863   0.05574   0.04923  -0.0782  0.0538  1.0000  -5.5615   0.0000   0.0000   0.0000   0.2769
  14.400   1.5883   0.05664   0.05019  -0.0779  0.0529  1.0000  -5.6121   0.0000   0.0000   0.0000   0.2764
  14.500   1.5902   0.05756   0.05116  -0.0776  0.0519  1.0000  -5.6622   0.0000   0.0000   0.0000   0.2760
  14.600   1.5918   0.05852   0.05216  -0.0774  0.0510  1.0000  -5.7110   0.0000   0.0000   0.0000   0.2756
  14.700   1.5930   0.05953   0.05322  -0.0771  0.0501  1.0000  -5.7580   0.0000   0.0000   0.0000   0.2751
  14.800   1.5941   0.06057   0.05430  -0.0769  0.0493  1.0000  -5.8045   0.0000   0.0000   0.0000   0.2747
  14.900   1.5950   0.06163   0.05539  -0.0766  0.0485  1.0000  -5.8595   0.0000   0.0000   0.0000   0.2743
  15.000   1.5958   0.06273   0.05652  -0.0764  0.0477  1.0000  -5.9264   0.0000   0.0000   0.0000   0.2740


