xflr5 v6.61

 Calculated polar for: SG6043

 1 1 Reynolds number fixed          Mach number fixed         

 xtrf =   1.000 (top)        1.000 (bottom)
 Mach =   0.000     Re =     0.350 e 6     Ncrit =   9.000

  alpha     CL        CD       CDp       Cm    Top Xtr Bot Xtr   Cpmin    Chinge    XCp    
 ------- -------- --------- --------- -------- ------- ------- -------- --------- ---------
 -10.000  -0.2358   0.11968   0.11688  -0.0588  0.9831  0.0183  -1.6925   0.0000   0.0000   0.0000  -0.0169
  -9.900  -0.2304   0.11814   0.11534  -0.0603  0.9820  0.0184  -1.7102   0.0000   0.0000   0.0000  -0.0295
  -9.800  -0.2249   0.11657   0.11377  -0.0619  0.9810  0.0184  -1.7285   0.0000   0.0000   0.0000  -0.0432
  -9.700  -0.2192   0.11497   0.11217  -0.0635  0.9801  0.0184  -1.7474   0.0000   0.0000   0.0000  -0.0581
  -9.600  -0.2163   0.11236   0.10958  -0.0648  0.9794  0.0186  -1.7976   0.0000   0.0000   0.0000  -0.0683
  -9.500  -0.2095   0.11049   0.10770  -0.0646  0.9789  0.0188  -1.7312   0.0000   0.0000   0.0000  -0.0777
  -9.400  -0.2017   0.10907   0.10628  -0.0650  0.9784  0.0190  -1.6707   0.0000   0.0000   0.0000  -0.0921
  -9.300  -0.1945   0.10773   0.10494  -0.0659  0.9779  0.0192  -1.6275   0.0000   0.0000   0.0000  -0.1090
  -9.200  -0.1875   0.10642   0.10363  -0.0669  0.9773  0.0194  -1.5944   0.0000   0.0000   0.0000  -0.1279
  -9.100  -0.1806   0.10511   0.10231  -0.0682  0.9767  0.0196  -1.5686   0.0000   0.0000   0.0000  -0.1490
  -9.000  -0.1737   0.10378   0.10098  -0.0695  0.9762  0.0199  -1.5486   0.0000   0.0000   0.0000  -0.1723
  -8.900  -0.1669   0.10243   0.09963  -0.0710  0.9757  0.0202  -1.5339   0.0000   0.0000   0.0000  -0.1983
  -8.800  -0.1599   0.10106   0.09825  -0.0725  0.9752  0.0205  -1.5236   0.0000   0.0000   0.0000  -0.2273
  -8.700  -0.1528   0.09965   0.09684  -0.0742  0.9747  0.0209  -1.5179   0.0000   0.0000   0.0000  -0.2600
  -8.600  -0.1527   0.09868   0.09588  -0.0739  0.9716  0.0212  -1.5212   0.0000   0.0000   0.0000  -0.2580
  -8.500  -0.1508   0.09757   0.09478  -0.0741  0.9686  0.0215  -1.5259   0.0000   0.0000   0.0000  -0.2656
  -8.400  -0.1466   0.09627   0.09348  -0.0751  0.9666  0.0220  -1.5338   0.0000   0.0000   0.0000  -0.2871
  -8.300  -0.1416   0.09486   0.09207  -0.0765  0.9649  0.0226  -1.5491   0.0000   0.0000   0.0000  -0.3152
  -8.200  -0.1364   0.09334   0.09055  -0.0783  0.9632  0.0233  -1.5859   0.0000   0.0000   0.0000  -0.3504
  -8.100  -0.1324   0.09165   0.08886  -0.0826  0.9610  0.0243  -1.7228   0.0000   0.0000   0.0000  -0.4004
  -8.000  -0.1265   0.08999   0.08721  -0.0862  0.9594  0.0246  -1.8165   0.0000   0.0000   0.0000  -0.4594
  -7.900  -0.1195   0.08840   0.08562  -0.0888  0.9582  0.0247  -1.8576   0.0000   0.0000   0.0000  -0.5220
  -7.800  -0.1124   0.08675   0.08397  -0.0913  0.9573  0.0247  -1.8918   0.0000   0.0000   0.0000  -0.5924
  -7.700  -0.1052   0.08505   0.08226  -0.0938  0.9564  0.0248  -1.9222   0.0000   0.0000   0.0000  -0.6740
  -7.600  -0.1044   0.08185   0.07907  -0.0945  0.9559  0.0253  -1.9468   0.0000   0.0000   0.0000  -0.6873
  -7.500  -0.0964   0.08068   0.07791  -0.0948  0.9556  0.0256  -1.8740   0.0000   0.0000   0.0000  -0.7690
  -7.400  -0.1040   0.08042   0.07767  -0.0923  0.9495  0.0257  -1.8736   0.0000   0.0000   0.0000  -0.6690
  -7.300  -0.1001   0.07960   0.07685  -0.0920  0.9470  0.0259  -1.8258   0.0000   0.0000   0.0000  -0.7012
  -7.200  -0.0945   0.07865   0.07590  -0.0923  0.9452  0.0262  -1.7801   0.0000   0.0000   0.0000  -0.7600
  -7.100  -0.0885   0.07760   0.07486  -0.0930  0.9435  0.0265  -1.7427   0.0000   0.0000   0.0000  -0.8363
  -7.000  -0.0821   0.07648   0.07373  -0.0940  0.9420  0.0269  -1.7122   0.0000   0.0000   0.0000  -0.9319
  -6.900  -0.0754   0.07534   0.07259  -0.0952  0.9406  0.0274  -1.6814   0.0000   0.0000   0.0000  -1.0531
  -6.800  -0.0685   0.07414   0.07140  -0.0967  0.9393  0.0280  -1.6555   0.0000   0.0000   0.0000  -1.2055
  -6.700  -0.0613   0.07282   0.07007  -0.0985  0.9381  0.0289  -1.6394   0.0000   0.0000   0.0000  -1.4038
  -6.600  -0.0528   0.07122   0.06847  -0.1011  0.9370  0.0299  -1.6360   0.0000   0.0000   0.0000  -1.7206
  -6.500  -0.0406   0.06899   0.06623  -0.1060  0.9359  0.0313  -1.6731   0.0000   0.0000   0.0000  -2.4275
  -6.400  -0.0191   0.06593   0.06314  -0.1168  0.9345  0.0326  -1.7985   0.0000   0.0000   0.0000  -6.0070
  -6.300  -0.0337   0.06605   0.06328  -0.1126  0.9258  0.0326  -1.8126   0.0000   0.0000   0.0000  -3.1696
  -6.200  -0.0240   0.06420   0.06142  -0.1164  0.9230  0.0328  -1.8407   0.0000   0.0000   0.0000  -4.7159
  -6.100  -0.0123   0.06198   0.05917  -0.1206  0.9210  0.0329  -1.8674   0.0000   0.0000   0.0000  -9.7853
  -6.000   0.0002   0.05958   0.05673  -0.1249  0.9195  0.0329  -1.8944   0.0000   0.0000   0.0000  519.1627
  -5.900   0.0131   0.05712   0.05421  -0.1289  0.9183  0.0330  -1.9218   0.0000   0.0000   0.0000  10.2488
  -5.800   0.0147   0.05204   0.04912  -0.1329  0.9169  0.0338  -2.0216   0.0000   0.0000   0.0000   9.4742
  -5.700   0.0236   0.05092   0.04800  -0.1336  0.9163  0.0342  -1.9524   0.0000   0.0000   0.0000   6.0149
  -5.600   0.0340   0.04978   0.04685  -0.1348  0.9157  0.0345  -1.8881   0.0000   0.0000   0.0000   4.2894
  -5.500   0.0455   0.04860   0.04566  -0.1364  0.9151  0.0349  -1.8270   0.0000   0.0000   0.0000   3.3007
  -5.400   0.0581   0.04739   0.04441  -0.1382  0.9146  0.0353  -1.7667   0.0000   0.0000   0.0000   2.6711
  -5.300   0.0718   0.04601   0.04301  -0.1405  0.9141  0.0359  -1.7153   0.0000   0.0000   0.0000   2.2399
  -5.200   0.0866   0.04448   0.04144  -0.1432  0.9136  0.0365  -1.6719   0.0000   0.0000   0.0000   1.9303
  -5.100   0.1025   0.04280   0.03971  -0.1463  0.9130  0.0374  -1.6362   0.0000   0.0000   0.0000   1.6994
  -5.000   0.1195   0.04096   0.03780  -0.1497  0.9125  0.0385  -1.6102   0.0000   0.0000   0.0000   1.5213
  -4.900   0.1376   0.03896   0.03570  -0.1532  0.9119  0.0399  -1.5977   0.0000   0.0000   0.0000   1.3801
  -4.800   0.1270   0.03884   0.03558  -0.1494  0.9051  0.0400  -1.6088   0.0000   0.0000   0.0000   1.4427
  -4.700   0.1366   0.03741   0.03403  -0.1504  0.9020  0.0416  -1.6412   0.0000   0.0000   0.0000   1.3666
  -4.600   0.1569   0.03720   0.03358  -0.1523  0.9004  0.0438  -1.6765   0.0000   0.0000   0.0000   1.2339
  -4.500   0.1711   0.03598   0.03221  -0.1540  0.8990  0.0439  -1.6857   0.0000   0.0000   0.0000   1.1621
  -4.400   0.1823   0.03038   0.02635  -0.1584  0.8975  0.0455  -1.8183   0.0000   0.0000   0.0000   1.1304
  -4.300   0.1958   0.02902   0.02497  -0.1599  0.8967  0.0463  -1.7823   0.0000   0.0000   0.0000   1.0770
  -4.200   0.2100   0.02808   0.02401  -0.1611  0.8959  0.0470  -1.7376   0.0000   0.0000   0.0000   1.0270
  -4.100   0.2318   0.02204   0.01727  -0.1642  0.8951  0.0311  -2.1919   0.0000   0.0000   0.0000   0.9672
  -4.000   0.2482   0.02016   0.01513  -0.1658  0.8943  0.0300  -2.2499   0.0000   0.0000   0.0000   0.9264
  -3.900   0.2643   0.01881   0.01356  -0.1670  0.8936  0.0295  -2.2696   0.0000   0.0000   0.0000   0.8898
  -3.800   0.2802   0.01779   0.01236  -0.1681  0.8929  0.0293  -2.2592   0.0000   0.0000   0.0000   0.8574
  -3.700   0.2957   0.01702   0.01144  -0.1691  0.8921  0.0293  -2.2255   0.0000   0.0000   0.0000   0.8286
  -3.600   0.3110   0.01665   0.01100  -0.1699  0.8914  0.0302  -2.1548   0.0000   0.0000   0.0000   0.8029
  -3.500   0.3262   0.01631   0.01058  -0.1708  0.8906  0.0311  -2.0846   0.0000   0.0000   0.0000   0.7795
  -3.400   0.3415   0.01585   0.01002  -0.1716  0.8897  0.0315  -2.0232   0.0000   0.0000   0.0000   0.7581
  -3.300   0.3568   0.01523   0.00929  -0.1725  0.8888  0.0314  -1.9753   0.0000   0.0000   0.0000   0.7386
  -3.200   0.3723   0.01462   0.00858  -0.1734  0.8879  0.0311  -1.9269   0.0000   0.0000   0.0000   0.7206
  -3.100   0.3879   0.01410   0.00798  -0.1743  0.8869  0.0309  -1.8727   0.0000   0.0000   0.0000   0.7039
  -3.000   0.3925   0.01388   0.00773  -0.1729  0.8838  0.0309  -1.8394   0.0000   0.0000   0.0000   0.6948
  -2.900   0.4003   0.01361   0.00742  -0.1721  0.8811  0.0309  -1.7974   0.0000   0.0000   0.0000   0.6841
  -2.800   0.4106   0.01331   0.00708  -0.1719  0.8789  0.0310  -1.7476   0.0000   0.0000   0.0000   0.6726
  -2.700   0.4223   0.01302   0.00675  -0.1720  0.8769  0.0311  -1.6928   0.0000   0.0000   0.0000   0.6609
  -2.600   0.4348   0.01273   0.00643  -0.1722  0.8752  0.0313  -1.6343   0.0000   0.0000   0.0000   0.6494
  -2.500   0.4480   0.01246   0.00613  -0.1726  0.8735  0.0317  -1.5728   0.0000   0.0000   0.0000   0.6384
  -2.400   0.4616   0.01221   0.00585  -0.1730  0.8719  0.0321  -1.5092   0.0000   0.0000   0.0000   0.6278
  -2.300   0.4755   0.01199   0.00560  -0.1735  0.8704  0.0327  -1.4436   0.0000   0.0000   0.0000   0.6177
  -2.200   0.4897   0.01166   0.00522  -0.1741  0.8689  0.0338  -1.3949   0.0000   0.0000   0.0000   0.6081
  -2.100   0.5040   0.01134   0.00490  -0.1748  0.8675  0.0361  -1.3668   0.0000   0.0000   0.0000   0.5991
  -2.000   0.5182   0.01118   0.00473  -0.1754  0.8661  0.0389  -1.3261   0.0000   0.0000   0.0000   0.5906
  -1.900   0.5328   0.01104   0.00457  -0.1760  0.8647  0.0429  -1.2906   0.0000   0.0000   0.0000   0.5823
  -1.800   0.5479   0.01077   0.00434  -0.1769  0.8633  0.0573  -1.2738   0.0000   0.0000   0.0000   0.5745
  -1.700   0.5619   0.01063   0.00424  -0.1775  0.8616  0.0781  -1.2347   0.0000   0.0000   0.0000   0.5674
  -1.600   0.5695   0.01055   0.00423  -0.1768  0.8591  0.0920  -1.1944   0.0000   0.0000   0.0000   0.5618
  -1.500   0.5784   0.01052   0.00421  -0.1763  0.8566  0.1016  -1.1463   0.0000   0.0000   0.0000   0.5560
  -1.400   0.5887   0.01042   0.00419  -0.1761  0.8542  0.1193  -1.0947   0.0000   0.0000   0.0000   0.5503
  -1.300   0.5999   0.01031   0.00415  -0.1762  0.8519  0.1412  -1.0399   0.0000   0.0000   0.0000   0.5446
  -1.200   0.6118   0.01017   0.00411  -0.1764  0.8497  0.1760  -0.9833   0.0000   0.0000   0.0000   0.5391
  -1.100   0.6244   0.00996   0.00406  -0.1768  0.8476  0.2310  -0.9259   0.0000   0.0000   0.0000   0.5339
  -1.000   0.6373   0.00972   0.00402  -0.1774  0.8456  0.3052  -0.8678   0.0000   0.0000   0.0000   0.5288
  -0.900   0.6504   0.00945   0.00401  -0.1780  0.8438  0.4030  -0.8087   0.0000   0.0000   0.0000   0.5240
  -0.800   0.6632   0.00918   0.00406  -0.1784  0.8419  0.5206  -0.7500   0.0000   0.0000   0.0000   0.5192
  -0.700   0.6762   0.00903   0.00408  -0.1788  0.8401  0.5955  -0.7423   0.0000   0.0000   0.0000   0.5144
  -0.600   0.6894   0.00893   0.00409  -0.1791  0.8381  0.6477  -0.7511   0.0000   0.0000   0.0000   0.5097
  -0.500   0.7003   0.00887   0.00413  -0.1790  0.8358  0.6850  -0.7588   0.0000   0.0000   0.0000   0.5053
  -0.400   0.7078   0.00884   0.00417  -0.1781  0.8331  0.7114  -0.7648   0.0000   0.0000   0.0000   0.5013
  -0.300   0.7162   0.00880   0.00419  -0.1774  0.8303  0.7365  -0.7716   0.0000   0.0000   0.0000   0.4972
  -0.200   0.7251   0.00874   0.00420  -0.1768  0.8275  0.7626  -0.7788   0.0000   0.0000   0.0000   0.4932
  -0.100   0.7341   0.00868   0.00420  -0.1762  0.8248  0.7913  -0.7865   0.0000   0.0000   0.0000   0.4892
   0.000   0.7429   0.00860   0.00418  -0.1755  0.8222  0.8222  -0.7943   0.0000   0.0000   0.0000   0.4853
   0.100   0.7512   0.00852   0.00415  -0.1746  0.8197  0.8554  -0.8019   0.0000   0.0000   0.0000   0.4814
   0.200   0.7579   0.00841   0.00409  -0.1733  0.8172  0.8944  -0.8087   0.0000   0.0000   0.0000   0.4776
   0.300   0.7722   0.00826   0.00396  -0.1737  0.8150  1.0000  -0.8202   0.0000   0.0000   0.0000   0.4737
   0.400   0.7864   0.00829   0.00393  -0.1743  0.8127  1.0000  -0.8317   0.0000   0.0000   0.0000   0.4703
   0.500   0.7980   0.00833   0.00393  -0.1744  0.8101  1.0000  -0.8417   0.0000   0.0000   0.0000   0.4671
   0.600   0.8069   0.00835   0.00395  -0.1739  0.8071  1.0000  -0.8503   0.0000   0.0000   0.0000   0.4639
   0.700   0.8167   0.00837   0.00395  -0.1736  0.8039  1.0000  -0.8601   0.0000   0.0000   0.0000   0.4609
   0.800   0.8273   0.00838   0.00394  -0.1735  0.8008  1.0000  -0.8712   0.0000   0.0000   0.0000   0.4578
   0.900   0.8385   0.00839   0.00391  -0.1734  0.7977  1.0000  -0.8827   0.0000   0.0000   0.0000   0.4549
   1.000   0.8502   0.00839   0.00389  -0.1735  0.7948  1.0000  -0.8946   0.0000   0.0000   0.0000   0.4520
   1.100   0.8624   0.00840   0.00385  -0.1736  0.7920  1.0000  -0.9079   0.0000   0.0000   0.0000   0.4491
   1.200   0.8754   0.00841   0.00382  -0.1740  0.7893  1.0000  -0.9217   0.0000   0.0000   0.0000   0.4464
   1.300   0.8891   0.00845   0.00381  -0.1744  0.7864  1.0000  -0.9361   0.0000   0.0000   0.0000   0.4438
   1.400   0.8985   0.00848   0.00384  -0.1741  0.7834  1.0000  -0.9481   0.0000   0.0000   0.0000   0.4412
   1.500   0.9075   0.00851   0.00386  -0.1736  0.7799  1.0000  -0.9604   0.0000   0.0000   0.0000   0.4386
   1.600   0.9174   0.00852   0.00387  -0.1732  0.7763  1.0000  -0.9736   0.0000   0.0000   0.0000   0.4361
   1.700   0.9278   0.00853   0.00386  -0.1730  0.7727  1.0000  -0.9885   0.0000   0.0000   0.0000   0.4336
   1.800   0.9388   0.00854   0.00384  -0.1729  0.7692  1.0000  -1.0038   0.0000   0.0000   0.0000   0.4312
   1.900   0.9507   0.00855   0.00381  -0.1730  0.7658  1.0000  -1.0200   0.0000   0.0000   0.0000   0.4288
   2.000   0.9636   0.00858   0.00379  -0.1733  0.7624  1.0000  -1.0380   0.0000   0.0000   0.0000   0.4266
   2.100   0.9747   0.00862   0.00380  -0.1733  0.7589  1.0000  -1.0554   0.0000   0.0000   0.0000   0.4244
   2.200   0.9832   0.00864   0.00384  -0.1727  0.7549  1.0000  -1.0705   0.0000   0.0000   0.0000   0.4221
   2.300   0.9925   0.00866   0.00386  -0.1722  0.7508  1.0000  -1.0874   0.0000   0.0000   0.0000   0.4199
   2.400   1.0025   0.00868   0.00387  -0.1719  0.7467  1.0000  -1.1060   0.0000   0.0000   0.0000   0.4178
   2.500   1.0133   0.00870   0.00386  -0.1718  0.7427  1.0000  -1.1262   0.0000   0.0000   0.0000   0.4157
   2.600   1.0250   0.00873   0.00384  -0.1719  0.7388  1.0000  -1.1492   0.0000   0.0000   0.0000   0.4137
   2.700   1.0376   0.00877   0.00385  -0.1721  0.7350  1.0000  -1.1733   0.0000   0.0000   0.0000   0.4118
   2.800   1.0456   0.00880   0.00390  -0.1714  0.7306  1.0000  -1.1926   0.0000   0.0000   0.0000   0.4097
   2.900   1.0544   0.00882   0.00393  -0.1709  0.7257  1.0000  -1.2127   0.0000   0.0000   0.0000   0.4077
   3.000   1.0640   0.00885   0.00394  -0.1705  0.7206  1.0000  -1.2339   0.0000   0.0000   0.0000   0.4058
   3.100   1.0746   0.00888   0.00394  -0.1703  0.7157  1.0000  -1.2563   0.0000   0.0000   0.0000   0.4039
   3.200   1.0860   0.00892   0.00393  -0.1703  0.7112  1.0000  -1.2796   0.0000   0.0000   0.0000   0.4021
   3.300   1.0952   0.00896   0.00397  -0.1699  0.7062  1.0000  -1.3006   0.0000   0.0000   0.0000   0.4003
   3.400   1.1039   0.00899   0.00401  -0.1693  0.7006  1.0000  -1.3211   0.0000   0.0000   0.0000   0.3984
   3.500   1.1134   0.00903   0.00403  -0.1689  0.6950  1.0000  -1.3426   0.0000   0.0000   0.0000   0.3966
   3.600   1.1235   0.00908   0.00404  -0.1686  0.6894  1.0000  -1.3660   0.0000   0.0000   0.0000   0.3949
   3.700   1.1339   0.00914   0.00405  -0.1684  0.6839  1.0000  -1.3917   0.0000   0.0000   0.0000   0.3932
   3.800   1.1422   0.00918   0.00411  -0.1678  0.6776  1.0000  -1.4148   0.0000   0.0000   0.0000   0.3915
   3.900   1.1510   0.00923   0.00415  -0.1673  0.6710  1.0000  -1.4388   0.0000   0.0000   0.0000   0.3898
   4.000   1.1604   0.00929   0.00417  -0.1669  0.6643  1.0000  -1.4637   0.0000   0.0000   0.0000   0.3881
   4.100   1.1699   0.00937   0.00420  -0.1665  0.6576  1.0000  -1.4886   0.0000   0.0000   0.0000   0.3865
   4.200   1.1780   0.00942   0.00429  -0.1658  0.6501  1.0000  -1.5121   0.0000   0.0000   0.0000   0.3848
   4.300   1.1866   0.00950   0.00433  -0.1652  0.6423  1.0000  -1.5361   0.0000   0.0000   0.0000   0.3832
   4.400   1.1956   0.00960   0.00437  -0.1647  0.6349  1.0000  -1.5629   0.0000   0.0000   0.0000   0.3816
   4.500   1.2039   0.00966   0.00444  -0.1642  0.6274  1.0000  -1.5935   0.0000   0.0000   0.0000   0.3800
   4.600   1.2122   0.00975   0.00450  -0.1635  0.6192  1.0000  -1.6241   0.0000   0.0000   0.0000   0.3784
   4.700   1.2205   0.00986   0.00456  -0.1629  0.6113  1.0000  -1.6550   0.0000   0.0000   0.0000   0.3769
   4.800   1.2290   0.00995   0.00463  -0.1623  0.6040  1.0000  -1.6863   0.0000   0.0000   0.0000   0.3754
   4.900   1.2371   0.01003   0.00471  -0.1617  0.5959  1.0000  -1.7173   0.0000   0.0000   0.0000   0.3739
   5.000   1.2449   0.01015   0.00478  -0.1610  0.5876  1.0000  -1.7479   0.0000   0.0000   0.0000   0.3723
   5.100   1.2529   0.01027   0.00486  -0.1604  0.5796  1.0000  -1.7788   0.0000   0.0000   0.0000   0.3709
   5.200   1.2606   0.01037   0.00495  -0.1596  0.5704  1.0000  -1.8095   0.0000   0.0000   0.0000   0.3694
   5.300   1.2674   0.01052   0.00504  -0.1587  0.5607  1.0000  -1.8389   0.0000   0.0000   0.0000   0.3679
   5.400   1.2747   0.01065   0.00513  -0.1580  0.5511  1.0000  -1.8692   0.0000   0.0000   0.0000   0.3664
   5.500   1.2813   0.01079   0.00523  -0.1570  0.5402  1.0000  -1.8985   0.0000   0.0000   0.0000   0.3649
   5.600   1.2873   0.01096   0.00534  -0.1560  0.5299  1.0000  -1.9270   0.0000   0.0000   0.0000   0.3634
   5.700   1.2941   0.01109   0.00548  -0.1551  0.5187  1.0000  -1.9568   0.0000   0.0000   0.0000   0.3619
   5.800   1.2991   0.01128   0.00560  -0.1539  0.5080  1.0000  -1.9861   0.0000   0.0000   0.0000   0.3604
   5.900   1.3056   0.01142   0.00571  -0.1530  0.4977  1.0000  -2.0191   0.0000   0.0000   0.0000   0.3590
   6.000   1.3105   0.01159   0.00584  -0.1517  0.4869  1.0000  -2.0496   0.0000   0.0000   0.0000   0.3575
   6.100   1.3157   0.01177   0.00597  -0.1506  0.4770  1.0000  -2.0804   0.0000   0.0000   0.0000   0.3560
   6.200   1.3212   0.01194   0.00610  -0.1495  0.4657  1.0000  -2.1121   0.0000   0.0000   0.0000   0.3545
   6.300   1.3249   0.01217   0.00626  -0.1480  0.4548  1.0000  -2.1406   0.0000   0.0000   0.0000   0.3530
   6.400   1.3305   0.01234   0.00640  -0.1469  0.4424  1.0000  -2.1726   0.0000   0.0000   0.0000   0.3516
   6.600   1.3385   0.01281   0.00674  -0.1442  0.4168  1.0000  -2.2310   0.0000   0.0000   0.0000   0.3486
   6.700   1.3413   0.01310   0.00694  -0.1427  0.4039  1.0000  -2.2580   0.0000   0.0000   0.0000   0.3471
   6.800   1.3463   0.01332   0.00712  -0.1416  0.3900  1.0000  -2.2894   0.0000   0.0000   0.0000   0.3457
   6.900   1.3495   0.01362   0.00733  -0.1401  0.3774  1.0000  -2.3174   0.0000   0.0000   0.0000   0.3443
   7.000   1.3546   0.01385   0.00752  -0.1391  0.3641  1.0000  -2.3492   0.0000   0.0000   0.0000   0.3430
   7.100   1.3580   0.01416   0.00775  -0.1377  0.3524  1.0000  -2.3777   0.0000   0.0000   0.0000   0.3416
   7.200   1.3633   0.01439   0.00795  -0.1367  0.3401  1.0000  -2.4101   0.0000   0.0000   0.0000   0.3403
   7.400   1.3721   0.01495   0.00842  -0.1344  0.3179  1.0000  -2.4725   0.0000   0.0000   0.0000   0.3377
   7.500   1.3761   0.01525   0.00867  -0.1332  0.3068  1.0000  -2.5060   0.0000   0.0000   0.0000   0.3364
   7.600   1.3811   0.01552   0.00890  -0.1322  0.2968  1.0000  -2.5421   0.0000   0.0000   0.0000   0.3351
   7.700   1.3860   0.01581   0.00913  -0.1311  0.2859  1.0000  -2.5778   0.0000   0.0000   0.0000   0.3339
   7.800   1.3901   0.01613   0.00940  -0.1300  0.2761  1.0000  -2.6119   0.0000   0.0000   0.0000   0.3327
   7.900   1.3958   0.01639   0.00963  -0.1291  0.2660  1.0000  -2.6498   0.0000   0.0000   0.0000   0.3315
   8.000   1.3995   0.01673   0.00992  -0.1279  0.2560  1.0000  -2.6833   0.0000   0.0000   0.0000   0.3303
   8.100   1.4046   0.01702   0.01017  -0.1270  0.2469  1.0000  -2.7201   0.0000   0.0000   0.0000   0.3291
   8.200   1.4091   0.01733   0.01044  -0.1259  0.2371  1.0000  -2.7572   0.0000   0.0000   0.0000   0.3279
   8.300   1.4125   0.01771   0.01076  -0.1248  0.2279  1.0000  -2.7941   0.0000   0.0000   0.0000   0.3267
   8.400   1.4182   0.01798   0.01102  -0.1239  0.2193  1.0000  -2.8372   0.0000   0.0000   0.0000   0.3257
   8.500   1.4223   0.01834   0.01132  -0.1229  0.2102  1.0000  -2.8763   0.0000   0.0000   0.0000   0.3245
   8.600   1.4266   0.01869   0.01164  -0.1219  0.2020  1.0000  -2.9165   0.0000   0.0000   0.0000   0.3234
   8.700   1.4320   0.01899   0.01191  -0.1210  0.1942  1.0000  -2.9644   0.0000   0.0000   0.0000   0.3223
   8.800   1.4359   0.01937   0.01224  -0.1200  0.1863  1.0000  -3.0080   0.0000   0.0000   0.0000   0.3212
   8.900   1.4397   0.01975   0.01259  -0.1189  0.1792  1.0000  -3.0514   0.0000   0.0000   0.0000   0.3201
   9.000   1.4454   0.02003   0.01290  -0.1182  0.1731  1.0000  -3.1034   0.0000   0.0000   0.0000   0.3191
   9.100   1.4499   0.02039   0.01323  -0.1172  0.1666  1.0000  -3.1544   0.0000   0.0000   0.0000   0.3180
   9.200   1.4534   0.02082   0.01360  -0.1162  0.1600  1.0000  -3.2021   0.0000   0.0000   0.0000   0.3170
   9.300   1.4585   0.02115   0.01394  -0.1154  0.1548  1.0000  -3.2552   0.0000   0.0000   0.0000   0.3160
   9.400   1.4640   0.02146   0.01425  -0.1146  0.1499  1.0000  -3.3103   0.0000   0.0000   0.0000   0.3150
   9.500   1.4684   0.02184   0.01461  -0.1137  0.1448  1.0000  -3.3617   0.0000   0.0000   0.0000   0.3140
   9.600   1.4717   0.02228   0.01502  -0.1127  0.1396  1.0000  -3.4097   0.0000   0.0000   0.0000   0.3129
   9.700   1.4746   0.02277   0.01548  -0.1116  0.1342  1.0000  -3.4555   0.0000   0.0000   0.0000   0.3119
   9.800   1.4809   0.02303   0.01578  -0.1110  0.1311  1.0000  -3.5147   0.0000   0.0000   0.0000   0.3110
   9.900   1.4863   0.02336   0.01612  -0.1102  0.1272  1.0000  -3.5705   0.0000   0.0000   0.0000   0.3101
  10.000   1.4907   0.02376   0.01651  -0.1094  0.1231  1.0000  -3.6235   0.0000   0.0000   0.0000   0.3091
  10.100   1.4942   0.02423   0.01695  -0.1085  0.1189  1.0000  -3.6729   0.0000   0.0000   0.0000   0.3082
  10.200   1.4960   0.02481   0.01750  -0.1073  0.1142  1.0000  -3.7158   0.0000   0.0000   0.0000   0.3071
  10.300   1.5008   0.02520   0.01791  -0.1066  0.1114  1.0000  -3.7700   0.0000   0.0000   0.0000   0.3062
  10.400   1.5068   0.02550   0.01825  -0.1060  0.1089  1.0000  -3.8295   0.0000   0.0000   0.0000   0.3054
  10.500   1.5119   0.02587   0.01864  -0.1053  0.1061  1.0000  -3.8858   0.0000   0.0000   0.0000   0.3045
  10.600   1.5162   0.02629   0.01906  -0.1045  0.1031  1.0000  -3.9397   0.0000   0.0000   0.0000   0.3036
  10.700   1.5198   0.02678   0.01955  -0.1036  0.1000  1.0000  -3.9907   0.0000   0.0000   0.0000   0.3027
  10.800   1.5220   0.02736   0.02012  -0.1027  0.0967  1.0000  -4.0363   0.0000   0.0000   0.0000   0.3018
  10.900   1.5223   0.02811   0.02085  -0.1015  0.0929  1.0000  -4.0729   0.0000   0.0000   0.0000   0.3008
  11.000   1.5273   0.02851   0.02129  -0.1008  0.0911  1.0000  -4.1294   0.0000   0.0000   0.0000   0.3000
  11.100   1.5333   0.02883   0.02166  -0.1003  0.0894  1.0000  -4.1906   0.0000   0.0000   0.0000   0.2992
  11.200   1.5386   0.02921   0.02207  -0.0997  0.0873  1.0000  -4.2495   0.0000   0.0000   0.0000   0.2984
  11.300   1.5432   0.02965   0.02253  -0.0990  0.0851  1.0000  -4.3055   0.0000   0.0000   0.0000   0.2976
  11.400   1.5469   0.03016   0.02304  -0.0983  0.0828  1.0000  -4.3584   0.0000   0.0000   0.0000   0.2968
  11.500   1.5498   0.03073   0.02361  -0.0975  0.0806  1.0000  -4.4084   0.0000   0.0000   0.0000   0.2960
  11.600   1.5518   0.03140   0.02426  -0.0966  0.0783  1.0000  -4.4539   0.0000   0.0000   0.0000   0.2952
  11.700   1.5521   0.03221   0.02508  -0.0956  0.0756  1.0000  -4.4911   0.0000   0.0000   0.0000   0.2943
  11.800   1.5515   0.03313   0.02601  -0.0944  0.0732  1.0000  -4.5229   0.0000   0.0000   0.0000   0.2934
  11.900   1.5574   0.03348   0.02641  -0.0940  0.0723  1.0000  -4.5859   0.0000   0.0000   0.0000   0.2927
  12.000   1.5626   0.03389   0.02686  -0.0935  0.0712  1.0000  -4.6460   0.0000   0.0000   0.0000   0.2920
  12.100   1.5673   0.03434   0.02736  -0.0929  0.0699  1.0000  -4.7040   0.0000   0.0000   0.0000   0.2913
  12.200   1.5717   0.03483   0.02788  -0.0924  0.0685  1.0000  -4.7611   0.0000   0.0000   0.0000   0.2906
  12.300   1.5759   0.03534   0.02843  -0.0918  0.0670  1.0000  -4.8175   0.0000   0.0000   0.0000   0.2899
  12.400   1.5796   0.03591   0.02901  -0.0912  0.0655  1.0000  -4.8720   0.0000   0.0000   0.0000   0.2892
  12.500   1.5827   0.03653   0.02964  -0.0906  0.0641  1.0000  -4.9239   0.0000   0.0000   0.0000   0.2885
  12.600   1.5849   0.03723   0.03035  -0.0899  0.0627  1.0000  -4.9722   0.0000   0.0000   0.0000   0.2878
  12.700   1.5862   0.03803   0.03118  -0.0892  0.0612  1.0000  -5.0159   0.0000   0.0000   0.0000   0.2871
  12.800   1.5863   0.03897   0.03213  -0.0884  0.0595  1.0000  -5.0528   0.0000   0.0000   0.0000   0.2864
  12.900   1.5848   0.04009   0.03327  -0.0875  0.0577  1.0000  -5.0805   0.0000   0.0000   0.0000   0.2856
  13.000   1.5855   0.04101   0.03423  -0.0868  0.0566  1.0000  -5.1186   0.0000   0.0000   0.0000   0.2849
  13.100   1.5904   0.04150   0.03477  -0.0864  0.0560  1.0000  -5.1793   0.0000   0.0000   0.0000   0.2843
  13.200   1.5948   0.04204   0.03536  -0.0859  0.0553  1.0000  -5.2378   0.0000   0.0000   0.0000   0.2837
  13.300   1.5988   0.04262   0.03599  -0.0855  0.0544  1.0000  -5.2946   0.0000   0.0000   0.0000   0.2831
  13.400   1.6025   0.04325   0.03665  -0.0851  0.0535  1.0000  -5.3497   0.0000   0.0000   0.0000   0.2825
  13.500   1.6059   0.04390   0.03735  -0.0846  0.0525  1.0000  -5.4093   0.0000   0.0000   0.0000   0.2819
  13.600   1.6090   0.04460   0.03809  -0.0842  0.0516  1.0000  -5.4678   0.0000   0.0000   0.0000   0.2813
  13.700   1.6115   0.04535   0.03887  -0.0837  0.0506  1.0000  -5.5244   0.0000   0.0000   0.0000   0.2808
  13.800   1.6138   0.04614   0.03969  -0.0833  0.0497  1.0000  -5.5794   0.0000   0.0000   0.0000   0.2802
  13.900   1.6157   0.04698   0.04055  -0.0828  0.0488  1.0000  -5.6328   0.0000   0.0000   0.0000   0.2797
  14.000   1.6171   0.04788   0.04147  -0.0824  0.0478  1.0000  -5.6836   0.0000   0.0000   0.0000   0.2791
  14.100   1.6177   0.04890   0.04251  -0.0819  0.0469  1.0000  -5.7293   0.0000   0.0000   0.0000   0.2786
  14.200   1.6169   0.05008   0.04371  -0.0814  0.0459  1.0000  -5.7669   0.0000   0.0000   0.0000   0.2781
  14.300   1.6150   0.05141   0.04507  -0.0809  0.0448  1.0000  -5.7967   0.0000   0.0000   0.0000   0.2776
  14.400   1.6119   0.05294   0.04665  -0.0803  0.0436  1.0000  -5.8161   0.0000   0.0000   0.0000   0.2771
  14.500   1.6123   0.05406   0.04781  -0.0798  0.0429  1.0000  -5.8573   0.0000   0.0000   0.0000   0.2766
  14.600   1.6153   0.05485   0.04866  -0.0796  0.0426  1.0000  -5.9160   0.0000   0.0000   0.0000   0.2762
  14.700   1.6179   0.05571   0.04957  -0.0793  0.0421  1.0000  -5.9721   0.0000   0.0000   0.0000   0.2757
  14.800   1.6203   0.05659   0.05051  -0.0791  0.0416  1.0000  -6.0411   0.0000   0.0000   0.0000   0.2753
  14.900   1.6224   0.05752   0.05149  -0.0789  0.0410  1.0000  -6.1188   0.0000   0.0000   0.0000   0.2748
  15.000   1.6244   0.05848   0.05250  -0.0786  0.0403  1.0000  -6.1952   0.0000   0.0000   0.0000   0.2744


