xflr5 v6.61

 Calculated polar for: SD7032-099-88

 1 1 Reynolds number fixed          Mach number fixed         

 xtrf =   1.000 (top)        1.000 (bottom)
 Mach =   0.000     Re =     0.275 e 6     Ncrit =   9.000

  alpha     CL        CD       CDp       Cm    Top Xtr Bot Xtr   Cpmin    Chinge    XCp    
 ------- -------- --------- --------- -------- ------- ------- -------- --------- ---------
 -10.000  -0.3151   0.11132   0.10821  -0.0377  1.0000  0.0267  -1.7077   0.0000   0.0000   0.0000   0.1206
  -9.900  -0.3139   0.11015   0.10706  -0.0381  1.0000  0.0267  -1.7096   0.0000   0.0000   0.0000   0.1192
  -9.800  -0.3129   0.10899   0.10591  -0.0384  1.0000  0.0267  -1.7117   0.0000   0.0000   0.0000   0.1180
  -9.700  -0.3120   0.10783   0.10476  -0.0387  1.0000  0.0268  -1.7141   0.0000   0.0000   0.0000   0.1168
  -9.600  -0.3113   0.10667   0.10362  -0.0389  1.0000  0.0268  -1.7166   0.0000   0.0000   0.0000   0.1158
  -9.500  -0.3106   0.10551   0.10248  -0.0391  1.0000  0.0268  -1.7195   0.0000   0.0000   0.0000   0.1149
  -9.400  -0.3102   0.10437   0.10135  -0.0393  1.0000  0.0268  -1.7227   0.0000   0.0000   0.0000   0.1142
  -9.300  -0.3100   0.10323   0.10023  -0.0395  1.0000  0.0268  -1.7262   0.0000   0.0000   0.0000   0.1137
  -9.200  -0.3100   0.10211   0.09913  -0.0396  1.0000  0.0269  -1.7301   0.0000   0.0000   0.0000   0.1135
  -9.100  -0.3103   0.10101   0.09805  -0.0396  1.0000  0.0269  -1.7345   0.0000   0.0000   0.0000   0.1137
  -9.000  -0.3109   0.09995   0.09700  -0.0396  1.0000  0.0269  -1.7394   0.0000   0.0000   0.0000   0.1142
  -8.900  -0.3119   0.09891   0.09599  -0.0395  1.0000  0.0269  -1.7449   0.0000   0.0000   0.0000   0.1151
  -8.800  -0.3133   0.09792   0.09502  -0.0393  1.0000  0.0269  -1.7510   0.0000   0.0000   0.0000   0.1165
  -8.700  -0.3153   0.09697   0.09409  -0.0389  1.0000  0.0269  -1.7578   0.0000   0.0000   0.0000   0.1185
  -8.600  -0.3177   0.09607   0.09322  -0.0385  1.0000  0.0269  -1.7656   0.0000   0.0000   0.0000   0.1210
  -8.500  -0.3206   0.09522   0.09239  -0.0380  1.0000  0.0269  -1.7799   0.0000   0.0000   0.0000   0.1240
  -8.400  -0.3241   0.09442   0.09161  -0.0373  1.0000  0.0269  -1.7945   0.0000   0.0000   0.0000   0.1274
  -8.000  -0.3540   0.08889   0.08623  -0.0342  1.0000  0.0275  -1.9748   0.0000   0.0000   0.0000   0.1468
  -7.900  -0.3619   0.08780   0.08516  -0.0332  1.0000  0.0276  -2.0063   0.0000   0.0000   0.0000   0.1520
  -7.800  -0.3693   0.08696   0.08436  -0.0321  1.0000  0.0277  -2.0294   0.0000   0.0000   0.0000   0.1571
  -7.700  -0.3768   0.08627   0.08369  -0.0309  1.0000  0.0278  -2.0496   0.0000   0.0000   0.0000   0.1621
  -7.600  -0.3844   0.08565   0.08310  -0.0297  1.0000  0.0278  -2.0690   0.0000   0.0000   0.0000   0.1670
  -7.500  -0.3805   0.08336   0.08081  -0.0320  0.9983  0.0282  -2.0780   0.0000   0.0000   0.0000   0.1604
  -7.400  -0.3739   0.08175   0.07920  -0.0333  0.9967  0.0285  -2.0452   0.0000   0.0000   0.0000   0.1554
  -7.300  -0.3666   0.08019   0.07764  -0.0349  0.9949  0.0288  -2.0134   0.0000   0.0000   0.0000   0.1492
  -7.200  -0.3584   0.07856   0.07601  -0.0370  0.9931  0.0292  -1.9841   0.0000   0.0000   0.0000   0.1413
  -7.100  -0.3488   0.07682   0.07427  -0.0394  0.9915  0.0295  -1.9551   0.0000   0.0000   0.0000   0.1313
  -7.000  -0.3387   0.07503   0.07247  -0.0421  0.9900  0.0299  -1.9282   0.0000   0.0000   0.0000   0.1199
  -6.900  -0.3320   0.07333   0.07077  -0.0443  0.9873  0.0303  -1.9153   0.0000   0.0000   0.0000   0.1110
  -6.800  -0.3239   0.07146   0.06887  -0.0470  0.9844  0.0306  -1.9058   0.0000   0.0000   0.0000   0.0992
  -6.700  -0.3150   0.06946   0.06687  -0.0502  0.9818  0.0310  -1.9004   0.0000   0.0000   0.0000   0.0850
  -6.600  -0.3051   0.06731   0.06470  -0.0538  0.9793  0.0315  -1.8993   0.0000   0.0000   0.0000   0.0679
  -6.500  -0.2941   0.06498   0.06235  -0.0578  0.9770  0.0320  -1.9025   0.0000   0.0000   0.0000   0.0475
  -6.400  -0.2821   0.06250   0.05984  -0.0621  0.9751  0.0326  -1.9102   0.0000   0.0000   0.0000   0.0237
  -6.300  -0.2692   0.05989   0.05719  -0.0667  0.9734  0.0332  -1.9227   0.0000   0.0000   0.0000  -0.0039
  -6.200  -0.2555   0.05719   0.05444  -0.0713  0.9720  0.0340  -1.9396   0.0000   0.0000   0.0000  -0.0354
  -6.100  -0.2409   0.05442   0.05160  -0.0759  0.9707  0.0349  -1.9616   0.0000   0.0000   0.0000  -0.0717
  -6.000  -0.2366   0.05260   0.04973  -0.0772  0.9662  0.0355  -1.9841   0.0000   0.0000   0.0000  -0.0829
  -5.900  -0.2274   0.05039   0.04745  -0.0796  0.9626  0.0363  -2.0113   0.0000   0.0000   0.0000  -0.1071
  -5.800  -0.2150   0.04804   0.04499  -0.0825  0.9598  0.0376  -2.0473   0.0000   0.0000   0.0000  -0.1412
  -5.700  -0.1938   0.04776   0.04450  -0.0849  0.9578  0.0404  -2.0515   0.0000   0.0000   0.0000  -0.1962
  -5.600  -0.1787   0.04672   0.04330  -0.0871  0.9560  0.0409  -2.0485   0.0000   0.0000   0.0000  -0.2461
  -5.500  -0.1649   0.04509   0.04153  -0.0892  0.9544  0.0410  -2.0512   0.0000   0.0000   0.0000  -0.3003
  -5.400  -0.1609   0.03798   0.03412  -0.0938  0.9524  0.0426  -2.2300   0.0000   0.0000   0.0000  -0.3431
  -5.300  -0.1490   0.03557   0.03164  -0.0959  0.9513  0.0439  -2.2076   0.0000   0.0000   0.0000  -0.4041
  -5.200  -0.1348   0.03427   0.03033  -0.0974  0.9506  0.0449  -2.1519   0.0000   0.0000   0.0000  -0.4841
  -5.000  -0.1021   0.02720   0.02234  -0.0999  0.9485  0.0279  -2.6092   0.0000   0.0000   0.0000  -0.7450
  -4.900  -0.0980   0.02584   0.02098  -0.0988  0.9441  0.0249  -2.6353   0.0000   0.0000   0.0000  -0.7750
  -4.800  -0.0899   0.02409   0.01903  -0.0987  0.9405  0.0239  -2.6907   0.0000   0.0000   0.0000  -0.8665
  -4.700  -0.0783   0.02249   0.01719  -0.0990  0.9379  0.0232  -2.7401   0.0000   0.0000   0.0000  -1.0352
  -4.600  -0.0653   0.02113   0.01561  -0.0994  0.9359  0.0229  -2.7746   0.0000   0.0000   0.0000  -1.2961
  -4.500  -0.0517   0.02003   0.01432  -0.0998  0.9341  0.0230  -2.7892   0.0000   0.0000   0.0000  -1.7122
  -4.400  -0.0377   0.01913   0.01327  -0.1003  0.9325  0.0235  -2.7872   0.0000   0.0000   0.0000  -2.4489
  -4.300  -0.0236   0.01840   0.01241  -0.1007  0.9309  0.0244  -2.7712   0.0000   0.0000   0.0000  -4.0815
  -4.200  -0.0092   0.01783   0.01173  -0.1012  0.9295  0.0253  -2.7384   0.0000   0.0000   0.0000  -10.8853
  -4.100   0.0055   0.01744   0.01125  -0.1017  0.9281  0.0262  -2.6832   0.0000   0.0000   0.0000  18.9998
  -4.000   0.0204   0.01733   0.01108  -0.1022  0.9267  0.0269  -2.5997   0.0000   0.0000   0.0000   5.3297
  -3.900   0.0324   0.01554   0.00913  -0.1026  0.9253  0.0301  -2.6167   0.0000   0.0000   0.0000   3.4595
  -3.800   0.0416   0.01539   0.00900  -0.1023  0.9220  0.0324  -2.5257   0.0000   0.0000   0.0000   2.7409
  -3.700   0.0505   0.01521   0.00881  -0.1018  0.9181  0.0342  -2.4525   0.0000   0.0000   0.0000   2.2932
  -3.600   0.0612   0.01485   0.00841  -0.1016  0.9148  0.0357  -2.3962   0.0000   0.0000   0.0000   1.9301
  -3.500   0.0727   0.01445   0.00797  -0.1014  0.9120  0.0372  -2.3391   0.0000   0.0000   0.0000   1.6615
  -3.400   0.0848   0.01410   0.00757  -0.1014  0.9096  0.0387  -2.2732   0.0000   0.0000   0.0000   1.4590
  -3.300   0.0973   0.01382   0.00725  -0.1015  0.9073  0.0400  -2.1979   0.0000   0.0000   0.0000   1.3041
  -3.200   0.1101   0.01366   0.00705  -0.1016  0.9052  0.0411  -2.1102   0.0000   0.0000   0.0000   1.1826
  -3.100   0.1213   0.01280   0.00617  -0.1016  0.9032  0.0460  -2.0646   0.0000   0.0000   0.0000   1.0959
  -3.000   0.1334   0.01254   0.00590  -0.1016  0.9012  0.0494  -1.9792   0.0000   0.0000   0.0000   1.0190
  -2.900   0.1423   0.01235   0.00570  -0.1011  0.8969  0.0517  -1.9093   0.0000   0.0000   0.0000   0.9671
  -2.800   0.1522   0.01216   0.00549  -0.1007  0.8930  0.0543  -1.8355   0.0000   0.0000   0.0000   0.9178
  -2.700   0.1630   0.01198   0.00527  -0.1005  0.8895  0.0571  -1.7573   0.0000   0.0000   0.0000   0.8718
  -2.600   0.1743   0.01182   0.00507  -0.1003  0.8863  0.0597  -1.6751   0.0000   0.0000   0.0000   0.8302
  -2.500   0.1857   0.01141   0.00469  -0.1002  0.8835  0.0713  -1.6081   0.0000   0.0000   0.0000   0.7939
  -2.400   0.1971   0.01098   0.00442  -0.1002  0.8808  0.1099  -1.5389   0.0000   0.0000   0.0000   0.7622
  -2.300   0.2079   0.01049   0.00423  -0.1003  0.8784  0.1939  -1.4571   0.0000   0.0000   0.0000   0.7355
  -2.200   0.2181   0.01024   0.00416  -0.1002  0.8749  0.2492  -1.3786   0.0000   0.0000   0.0000   0.7122
  -2.100   0.2277   0.01002   0.00410  -0.0999  0.8705  0.2980  -1.3162   0.0000   0.0000   0.0000   0.6915
  -2.000   0.2378   0.00979   0.00403  -0.0997  0.8664  0.3484  -1.2516   0.0000   0.0000   0.0000   0.6718
  -1.900   0.2483   0.00956   0.00395  -0.0996  0.8626  0.4007  -1.1861   0.0000   0.0000   0.0000   0.6531
  -1.800   0.2588   0.00933   0.00389  -0.0994  0.8593  0.4552  -1.1206   0.0000   0.0000   0.0000   0.6358
  -1.700   0.2694   0.00912   0.00383  -0.0991  0.8563  0.5105  -1.0556   0.0000   0.0000   0.0000   0.6196
  -1.600   0.2800   0.00895   0.00378  -0.0989  0.8535  0.5583  -0.9907   0.0000   0.0000   0.0000   0.6043
  -1.500   0.2890   0.00881   0.00379  -0.0983  0.8485  0.6045  -0.9319   0.0000   0.0000   0.0000   0.5914
  -1.400   0.2979   0.00865   0.00380  -0.0977  0.8438  0.6562  -0.8734   0.0000   0.0000   0.0000   0.5789
  -1.300   0.3068   0.00850   0.00379  -0.0970  0.8395  0.7046  -0.8156   0.0000   0.0000   0.0000   0.5667
  -1.200   0.3156   0.00836   0.00376  -0.0961  0.8357  0.7450  -0.7585   0.0000   0.0000   0.0000   0.5551
  -1.100   0.3249   0.00826   0.00371  -0.0954  0.8323  0.7779  -0.7009   0.0000   0.0000   0.0000   0.5439
  -1.000   0.3338   0.00819   0.00368  -0.0946  0.8284  0.8047  -0.6472   0.0000   0.0000   0.0000   0.5336
  -0.900   0.3420   0.00813   0.00365  -0.0937  0.8230  0.8280  -0.6079   0.0000   0.0000   0.0000   0.5241
  -0.800   0.3502   0.00806   0.00361  -0.0928  0.8180  0.8505  -0.6095   0.0000   0.0000   0.0000   0.5149
  -0.700   0.3582   0.00798   0.00355  -0.0918  0.8135  0.8753  -0.6182   0.0000   0.0000   0.0000   0.5059
  -0.500   0.3788   0.00780   0.00337  -0.0905  0.8057  0.9316  -0.6381   0.0000   0.0000   0.0000   0.4885
  -0.400   0.3971   0.00772   0.00329  -0.0918  0.8003  0.9661  -0.6525   0.0000   0.0000   0.0000   0.4806
  -0.300   0.4164   0.00766   0.00318  -0.0935  0.7949  1.0000  -0.6675   0.0000   0.0000   0.0000   0.4738
  -0.200   0.4272   0.00766   0.00312  -0.0934  0.7897  1.0000  -0.6777   0.0000   0.0000   0.0000   0.4677
  -0.100   0.4383   0.00766   0.00304  -0.0933  0.7851  1.0000  -0.6885   0.0000   0.0000   0.0000   0.4618
   0.000   0.4492   0.00768   0.00301  -0.0932  0.7799  1.0000  -0.6995   0.0000   0.0000   0.0000   0.4563
   0.100   0.4598   0.00769   0.00299  -0.0931  0.7737  1.0000  -0.7104   0.0000   0.0000   0.0000   0.4512
   0.200   0.4706   0.00771   0.00294  -0.0929  0.7679  1.0000  -0.7215   0.0000   0.0000   0.0000   0.4462
   0.300   0.4817   0.00772   0.00288  -0.0928  0.7627  1.0000  -0.7328   0.0000   0.0000   0.0000   0.4413
   0.400   0.4926   0.00775   0.00285  -0.0927  0.7574  1.0000  -0.7441   0.0000   0.0000   0.0000   0.4367
   0.500   0.5033   0.00777   0.00285  -0.0926  0.7509  1.0000  -0.7553   0.0000   0.0000   0.0000   0.4324
   0.600   0.5142   0.00780   0.00282  -0.0925  0.7448  1.0000  -0.7675   0.0000   0.0000   0.0000   0.4282
   0.700   0.5251   0.00783   0.00279  -0.0924  0.7392  1.0000  -0.7799   0.0000   0.0000   0.0000   0.4241
   0.800   0.5360   0.00786   0.00277  -0.0923  0.7335  1.0000  -0.7923   0.0000   0.0000   0.0000   0.4202
   0.900   0.5467   0.00789   0.00277  -0.0922  0.7267  1.0000  -0.8050   0.0000   0.0000   0.0000   0.4165
   1.000   0.5575   0.00793   0.00276  -0.0920  0.7201  1.0000  -0.8186   0.0000   0.0000   0.0000   0.4129
   1.100   0.5684   0.00797   0.00273  -0.0919  0.7142  1.0000  -0.8323   0.0000   0.0000   0.0000   0.4094
   1.200   0.5792   0.00801   0.00274  -0.0918  0.7079  1.0000  -0.8459   0.0000   0.0000   0.0000   0.4061
   1.300   0.5900   0.00805   0.00275  -0.0917  0.7012  1.0000  -0.8595   0.0000   0.0000   0.0000   0.4030
   1.400   0.6008   0.00810   0.00274  -0.0915  0.6948  1.0000  -0.8732   0.0000   0.0000   0.0000   0.3999
   1.600   0.6223   0.00820   0.00277  -0.0913  0.6819  1.0000  -0.9019   0.0000   0.0000   0.0000   0.3940
   1.700   0.6329   0.00825   0.00278  -0.0912  0.6747  1.0000  -0.9171   0.0000   0.0000   0.0000   0.3912
   1.800   0.6436   0.00832   0.00278  -0.0910  0.6680  1.0000  -0.9324   0.0000   0.0000   0.0000   0.3885
   1.900   0.6543   0.00838   0.00280  -0.0909  0.6614  1.0000  -0.9477   0.0000   0.0000   0.0000   0.3859
   2.000   0.6649   0.00842   0.00282  -0.0908  0.6540  1.0000  -0.9630   0.0000   0.0000   0.0000   0.3834
   2.100   0.6755   0.00849   0.00284  -0.0906  0.6469  1.0000  -0.9783   0.0000   0.0000   0.0000   0.3810
   2.200   0.6861   0.00857   0.00285  -0.0905  0.6404  1.0000  -0.9937   0.0000   0.0000   0.0000   0.3786
   2.300   0.6968   0.00862   0.00289  -0.0903  0.6330  1.0000  -1.0091   0.0000   0.0000   0.0000   0.3763
   2.400   0.7073   0.00869   0.00291  -0.0902  0.6255  1.0000  -1.0246   0.0000   0.0000   0.0000   0.3741
   2.500   0.7177   0.00878   0.00293  -0.0900  0.6185  1.0000  -1.0400   0.0000   0.0000   0.0000   0.3718
   2.600   0.7283   0.00884   0.00298  -0.0899  0.6110  1.0000  -1.0555   0.0000   0.0000   0.0000   0.3698
   2.700   0.7388   0.00890   0.00301  -0.0897  0.6034  1.0000  -1.0715   0.0000   0.0000   0.0000   0.3677
   2.800   0.7491   0.00900   0.00304  -0.0895  0.5962  1.0000  -1.0889   0.0000   0.0000   0.0000   0.3657
   2.900   0.7596   0.00907   0.00309  -0.0894  0.5891  1.0000  -1.1063   0.0000   0.0000   0.0000   0.3638
   3.000   0.7701   0.00914   0.00314  -0.0893  0.5814  1.0000  -1.1238   0.0000   0.0000   0.0000   0.3619
   3.100   0.7804   0.00923   0.00320  -0.0891  0.5741  1.0000  -1.1413   0.0000   0.0000   0.0000   0.3600
   3.200   0.7908   0.00932   0.00325  -0.0889  0.5674  1.0000  -1.1589   0.0000   0.0000   0.0000   0.3582
   3.300   0.8013   0.00939   0.00331  -0.0888  0.5599  1.0000  -1.1765   0.0000   0.0000   0.0000   0.3565
   3.400   0.8115   0.00948   0.00336  -0.0886  0.5524  1.0000  -1.1941   0.0000   0.0000   0.0000   0.3548
   3.500   0.8217   0.00960   0.00341  -0.0884  0.5454  1.0000  -1.2117   0.0000   0.0000   0.0000   0.3531
   3.600   0.8322   0.00966   0.00348  -0.0883  0.5378  1.0000  -1.2295   0.0000   0.0000   0.0000   0.3515
   3.700   0.8424   0.00975   0.00353  -0.0881  0.5301  1.0000  -1.2472   0.0000   0.0000   0.0000   0.3499
   3.800   0.8524   0.00988   0.00359  -0.0879  0.5231  1.0000  -1.2663   0.0000   0.0000   0.0000   0.3483
   3.900   0.8629   0.00995   0.00366  -0.0878  0.5161  1.0000  -1.2867   0.0000   0.0000   0.0000   0.3468
   4.000   0.8731   0.01004   0.00373  -0.0876  0.5089  1.0000  -1.3070   0.0000   0.0000   0.0000   0.3453
   4.100   0.8832   0.01016   0.00380  -0.0874  0.5021  1.0000  -1.3272   0.0000   0.0000   0.0000   0.3439
   4.200   0.8934   0.01026   0.00388  -0.0873  0.4956  1.0000  -1.3475   0.0000   0.0000   0.0000   0.3424
   4.300   0.9037   0.01034   0.00396  -0.0871  0.4884  1.0000  -1.3681   0.0000   0.0000   0.0000   0.3411
   4.400   0.9137   0.01046   0.00403  -0.0869  0.4811  1.0000  -1.3908   0.0000   0.0000   0.0000   0.3397
   4.500   0.9235   0.01060   0.00412  -0.0867  0.4742  1.0000  -1.4141   0.0000   0.0000   0.0000   0.3383
   4.600   0.9338   0.01067   0.00425  -0.0865  0.4668  1.0000  -1.4381   0.0000   0.0000   0.0000   0.3370
   4.700   0.9438   0.01078   0.00433  -0.0863  0.4593  1.0000  -1.4618   0.0000   0.0000   0.0000   0.3357
   4.800   0.9534   0.01094   0.00442  -0.0861  0.4524  1.0000  -1.4852   0.0000   0.0000   0.0000   0.3344
   4.900   0.9637   0.01102   0.00452  -0.0859  0.4457  1.0000  -1.5108   0.0000   0.0000   0.0000   0.3332
   5.000   0.9737   0.01112   0.00461  -0.0858  0.4387  1.0000  -1.5391   0.0000   0.0000   0.0000   0.3320
   5.100   0.9834   0.01126   0.00471  -0.0855  0.4321  1.0000  -1.5671   0.0000   0.0000   0.0000   0.3308
   5.200   0.9932   0.01140   0.00482  -0.0853  0.4259  1.0000  -1.5991   0.0000   0.0000   0.0000   0.3296
   5.300   1.0034   0.01149   0.00492  -0.0852  0.4191  1.0000  -1.6332   0.0000   0.0000   0.0000   0.3284
   5.400   1.0131   0.01161   0.00502  -0.0849  0.4120  1.0000  -1.6670   0.0000   0.0000   0.0000   0.3273
   5.500   1.0224   0.01179   0.00513  -0.0846  0.4052  1.0000  -1.7002   0.0000   0.0000   0.0000   0.3261
   5.600   1.0325   0.01188   0.00525  -0.0845  0.3985  1.0000  -1.7349   0.0000   0.0000   0.0000   0.3250
   5.700   1.0423   0.01199   0.00536  -0.0843  0.3913  1.0000  -1.7693   0.0000   0.0000   0.0000   0.3239
   5.800   1.0516   0.01215   0.00547  -0.0840  0.3845  1.0000  -1.8032   0.0000   0.0000   0.0000   0.3228
   5.900   1.0612   0.01230   0.00560  -0.0837  0.3782  1.0000  -1.8375   0.0000   0.0000   0.0000   0.3218
   6.000   1.0711   0.01240   0.00575  -0.0835  0.3715  1.0000  -1.8728   0.0000   0.0000   0.0000   0.3207
   6.100   1.0805   0.01255   0.00587  -0.0833  0.3645  1.0000  -1.9122   0.0000   0.0000   0.0000   0.3197
   6.200   1.0893   0.01275   0.00601  -0.0829  0.3577  1.0000  -1.9520   0.0000   0.0000   0.0000   0.3186
   6.300   1.0993   0.01284   0.00614  -0.0828  0.3513  1.0000  -1.9944   0.0000   0.0000   0.0000   0.3176
   6.400   1.1088   0.01297   0.00627  -0.0825  0.3444  1.0000  -2.0362   0.0000   0.0000   0.0000   0.3166
   6.500   1.1178   0.01314   0.00640  -0.0822  0.3379  1.0000  -2.0772   0.0000   0.0000   0.0000   0.3156
   6.600   1.1269   0.01332   0.00656  -0.0819  0.3317  1.0000  -2.1185   0.0000   0.0000   0.0000   0.3147
   6.700   1.1366   0.01343   0.00669  -0.0817  0.3251  1.0000  -2.1615   0.0000   0.0000   0.0000   0.3137
   6.800   1.1457   0.01358   0.00683  -0.0814  0.3181  1.0000  -2.2035   0.0000   0.0000   0.0000   0.3128
   6.900   1.1540   0.01381   0.00699  -0.0810  0.3111  1.0000  -2.2440   0.0000   0.0000   0.0000   0.3118
   7.000   1.1636   0.01392   0.00714  -0.0807  0.3044  1.0000  -2.2927   0.0000   0.0000   0.0000   0.3109
   7.100   1.1727   0.01406   0.00728  -0.0804  0.2973  1.0000  -2.3425   0.0000   0.0000   0.0000   0.3099
   7.200   1.1811   0.01427   0.00744  -0.0800  0.2904  1.0000  -2.3909   0.0000   0.0000   0.0000   0.3090
   7.300   1.1899   0.01444   0.00761  -0.0797  0.2840  1.0000  -2.4407   0.0000   0.0000   0.0000   0.3081
   7.400   1.1992   0.01458   0.00776  -0.0794  0.2774  1.0000  -2.4920   0.0000   0.0000   0.0000   0.3072
   7.500   1.2078   0.01476   0.00797  -0.0791  0.2708  1.0000  -2.5490   0.0000   0.0000   0.0000   0.3063
   7.600   1.2156   0.01501   0.00816  -0.0786  0.2647  1.0000  -2.6042   0.0000   0.0000   0.0000   0.3053
   7.700   1.2250   0.01514   0.00834  -0.0783  0.2593  1.0000  -2.6641   0.0000   0.0000   0.0000   0.3045
   7.800   1.2339   0.01530   0.00851  -0.0780  0.2532  1.0000  -2.7233   0.0000   0.0000   0.0000   0.3036
   7.900   1.2420   0.01550   0.00869  -0.0776  0.2468  1.0000  -2.7830   0.0000   0.0000   0.0000   0.3027
   8.000   1.2494   0.01578   0.00891  -0.0771  0.2404  1.0000  -2.8690   0.0000   0.0000   0.0000   0.3018
   8.100   1.2587   0.01589   0.00908  -0.0768  0.2346  1.0000  -2.9659   0.0000   0.0000   0.0000   0.3010
   8.200   1.2671   0.01607   0.00927  -0.0764  0.2280  1.0000  -3.0591   0.0000   0.0000   0.0000   0.3002
   8.300   1.2744   0.01632   0.00947  -0.0759  0.2216  1.0000  -3.1486   0.0000   0.0000   0.0000   0.2993
   8.400   1.2822   0.01655   0.00969  -0.0754  0.2157  1.0000  -3.2409   0.0000   0.0000   0.0000   0.2984
   8.500   1.2910   0.01670   0.00989  -0.0751  0.2100  1.0000  -3.3390   0.0000   0.0000   0.0000   0.2976
   8.600   1.2988   0.01692   0.01010  -0.0746  0.2041  1.0000  -3.4445   0.0000   0.0000   0.0000   0.2967
   8.700   1.3056   0.01719   0.01033  -0.0740  0.1982  1.0000  -3.5510   0.0000   0.0000   0.0000   0.2958
   8.800   1.3132   0.01742   0.01057  -0.0735  0.1930  1.0000  -3.6629   0.0000   0.0000   0.0000   0.2950
   8.900   1.3215   0.01759   0.01078  -0.0731  0.1875  1.0000  -3.7810   0.0000   0.0000   0.0000   0.2942
   9.000   1.3287   0.01783   0.01102  -0.0726  0.1815  1.0000  -3.8934   0.0000   0.0000   0.0000   0.2933
   9.100   1.3346   0.01815   0.01128  -0.0719  0.1753  1.0000  -3.9988   0.0000   0.0000   0.0000   0.2924
   9.200   1.3420   0.01837   0.01153  -0.0713  0.1698  1.0000  -4.1141   0.0000   0.0000   0.0000   0.2916
   9.300   1.3495   0.01858   0.01180  -0.0708  0.1637  1.0000  -4.2269   0.0000   0.0000   0.0000   0.2908
   9.400   1.3555   0.01887   0.01207  -0.0701  0.1573  1.0000  -4.3346   0.0000   0.0000   0.0000   0.2899
   9.500   1.3597   0.01926   0.01241  -0.0692  0.1507  1.0000  -4.4321   0.0000   0.0000   0.0000   0.2889
   9.600   1.3678   0.01942   0.01263  -0.0688  0.1455  1.0000  -4.5565   0.0000   0.0000   0.0000   0.2881
   9.700   1.3737   0.01969   0.01289  -0.0680  0.1393  1.0000  -4.6675   0.0000   0.0000   0.0000   0.2872
   9.800   1.3773   0.02004   0.01321  -0.0670  0.1332  1.0000  -4.7640   0.0000   0.0000   0.0000   0.2861
   9.900   1.3813   0.02039   0.01354  -0.0659  0.1275  1.0000  -4.8626   0.0000   0.0000   0.0000   0.2851
  10.000   1.3874   0.02062   0.01381  -0.0652  0.1218  1.0000  -4.9773   0.0000   0.0000   0.0000   0.2842
  10.100   1.3912   0.02097   0.01413  -0.0642  0.1157  1.0000  -5.0772   0.0000   0.0000   0.0000   0.2832
  10.200   1.3926   0.02145   0.01455  -0.0629  0.1096  1.0000  -5.1602   0.0000   0.0000   0.0000   0.2821
  10.300   1.3976   0.02175   0.01489  -0.0620  0.1047  1.0000  -5.2681   0.0000   0.0000   0.0000   0.2811
  10.400   1.4022   0.02208   0.01523  -0.0612  0.0995  1.0000  -5.3747   0.0000   0.0000   0.0000   0.2802
  10.500   1.4048   0.02252   0.01563  -0.0601  0.0945  1.0000  -5.4674   0.0000   0.0000   0.0000   0.2792
  10.600   1.4050   0.02311   0.01617  -0.0587  0.0895  1.0000  -5.5412   0.0000   0.0000   0.0000   0.2781
  10.700   1.4086   0.02351   0.01661  -0.0577  0.0859  1.0000  -5.6400   0.0000   0.0000   0.0000   0.2771
  10.800   1.4133   0.02386   0.01701  -0.0570  0.0827  1.0000  -5.7486   0.0000   0.0000   0.0000   0.2763
  10.900   1.4166   0.02429   0.01745  -0.0560  0.0793  1.0000  -5.8471   0.0000   0.0000   0.0000   0.2754
  11.000   1.4186   0.02480   0.01795  -0.0550  0.0761  1.0000  -5.9366   0.0000   0.0000   0.0000   0.2744
  11.100   1.4190   0.02542   0.01855  -0.0538  0.0729  1.0000  -6.0131   0.0000   0.0000   0.0000   0.2734
  11.200   1.4169   0.02624   0.01936  -0.0524  0.0693  1.0000  -6.0653   0.0000   0.0000   0.0000   0.2723
  11.300   1.4205   0.02668   0.01985  -0.0516  0.0674  1.0000  -6.1667   0.0000   0.0000   0.0000   0.2715
  11.400   1.4256   0.02703   0.02026  -0.0509  0.0656  1.0000  -6.2826   0.0000   0.0000   0.0000   0.2708
  11.500   1.4298   0.02743   0.02071  -0.0503  0.0633  1.0000  -6.3921   0.0000   0.0000   0.0000   0.2700
  11.600   1.4332   0.02790   0.02120  -0.0496  0.0610  1.0000  -6.4963   0.0000   0.0000   0.0000   0.2693
  11.700   1.4354   0.02845   0.02176  -0.0488  0.0587  1.0000  -6.5921   0.0000   0.0000   0.0000   0.2685
  11.800   1.4362   0.02911   0.02240  -0.0479  0.0563  1.0000  -6.6765   0.0000   0.0000   0.0000   0.2677
  11.900   1.4351   0.02993   0.02323  -0.0469  0.0539  1.0000  -6.7409   0.0000   0.0000   0.0000   0.2668
  12.000   1.4317   0.03097   0.02429  -0.0457  0.0515  1.0000  -6.7815   0.0000   0.0000   0.0000   0.2659
  12.100   1.4341   0.03157   0.02493  -0.0450  0.0501  1.0000  -6.8773   0.0000   0.0000   0.0000   0.2652
  12.200   1.4401   0.03187   0.02529  -0.0447  0.0487  1.0000  -7.0095   0.0000   0.0000   0.0000   0.2647
  12.300   1.4445   0.03231   0.02583  -0.0442  0.0472  1.0000  -7.1298   0.0000   0.0000   0.0000   0.2641
  12.400   1.4478   0.03285   0.02642  -0.0437  0.0457  1.0000  -7.2371   0.0000   0.0000   0.0000   0.2635
  12.500   1.4504   0.03346   0.02707  -0.0432  0.0442  1.0000  -7.3384   0.0000   0.0000   0.0000   0.2629
  12.600   1.4522   0.03414   0.02777  -0.0426  0.0427  1.0000  -7.4330   0.0000   0.0000   0.0000   0.2623
  12.700   1.4530   0.03491   0.02856  -0.0421  0.0412  1.0000  -7.5185   0.0000   0.0000   0.0000   0.2617
  12.800   1.4525   0.03581   0.02948  -0.0415  0.0399  1.0000  -7.5910   0.0000   0.0000   0.0000   0.2611
  12.900   1.4507   0.03686   0.03055  -0.0408  0.0384  1.0000  -7.6488   0.0000   0.0000   0.0000   0.2605
  13.000   1.4471   0.03811   0.03183  -0.0402  0.0370  1.0000  -7.6864   0.0000   0.0000   0.0000   0.2599
  13.100   1.4419   0.03957   0.03334  -0.0395  0.0356  1.0000  -7.7049   0.0000   0.0000   0.0000   0.2594
  13.200   1.4423   0.04051   0.03433  -0.0391  0.0348  1.0000  -7.7803   0.0000   0.0000   0.0000   0.2589
  13.300   1.4475   0.04097   0.03485  -0.0389  0.0339  1.0000  -7.9084   0.0000   0.0000   0.0000   0.2585
  13.400   1.4516   0.04154   0.03548  -0.0388  0.0328  1.0000  -8.0253   0.0000   0.0000   0.0000   0.2581
  13.500   1.4546   0.04224   0.03623  -0.0386  0.0315  1.0000  -8.1312   0.0000   0.0000   0.0000   0.2577
  13.600   1.4570   0.04300   0.03702  -0.0384  0.0301  1.0000  -8.2329   0.0000   0.0000   0.0000   0.2574
  13.700   1.4588   0.04383   0.03789  -0.0383  0.0286  1.0000  -8.3294   0.0000   0.0000   0.0000   0.2571
  13.800   1.4586   0.04491   0.03897  -0.0382  0.0272  1.0000  -8.4050   0.0000   0.0000   0.0000   0.2568
  13.900   1.4563   0.04623   0.04029  -0.0381  0.0259  1.0000  -8.4580   0.0000   0.0000   0.0000   0.2566
  14.000   1.4512   0.04790   0.04200  -0.0380  0.0247  1.0000  -8.4772   0.0000   0.0000   0.0000   0.2564
  14.100   1.4437   0.04991   0.04406  -0.0380  0.0235  1.0000  -8.4647   0.0000   0.0000   0.0000   0.2563
  14.200   1.4409   0.05142   0.04561  -0.0380  0.0225  1.0000  -8.5007   0.0000   0.0000   0.0000   0.2562
  14.300   1.4466   0.05194   0.04619  -0.0381  0.0211  1.0000  -8.6285   0.0000   0.0000   0.0000   0.2559
  14.400   1.4476   0.05303   0.04733  -0.0382  0.0197  1.0000  -8.7045   0.0000   0.0000   0.0000   0.2558
  14.500   1.4469   0.05436   0.04868  -0.0384  0.0183  1.0000  -8.7631   0.0000   0.0000   0.0000   0.2557
  14.600   1.4438   0.05602   0.05036  -0.0387  0.0173  1.0000  -8.7961   0.0000   0.0000   0.0000   0.2558
  14.700   1.4389   0.05795   0.05231  -0.0391  0.0164  1.0000  -8.8079   0.0000   0.0000   0.0000   0.2559
  14.800   1.4319   0.06022   0.05462  -0.0396  0.0156  1.0000  -8.7920   0.0000   0.0000   0.0000   0.2562
  14.900   1.4232   0.06279   0.05725  -0.0403  0.0150  1.0000  -8.7515   0.0000   0.0000   0.0000   0.2566
  15.000   1.4133   0.06558   0.06012  -0.0410  0.0145  1.0000  -8.6939   0.0000   0.0000   0.0000   0.2572


