xflr5 v6.61

 Calculated polar for: SD7032-099-88

 1 1 Reynolds number fixed          Mach number fixed         

 xtrf =   1.000 (top)        1.000 (bottom)
 Mach =   0.000     Re =     0.375 e 6     Ncrit =   9.000

  alpha     CL        CD       CDp       Cm    Top Xtr Bot Xtr   Cpmin    Chinge    XCp    
 ------- -------- --------- --------- -------- ------- ------- -------- --------- ---------
 -10.000  -0.3176   0.10696   0.10430  -0.0352  1.0000  0.0194  -1.7413   0.0000   0.0000   0.0000   0.1294
  -9.900  -0.3162   0.10584   0.10319  -0.0354  1.0000  0.0195  -1.7291   0.0000   0.0000   0.0000   0.1285
  -9.800  -0.3149   0.10472   0.10208  -0.0355  1.0000  0.0196  -1.7182   0.0000   0.0000   0.0000   0.1276
  -9.700  -0.3137   0.10361   0.10097  -0.0357  1.0000  0.0198  -1.7083   0.0000   0.0000   0.0000   0.1268
  -9.600  -0.3127   0.10250   0.09988  -0.0358  1.0000  0.0199  -1.6996   0.0000   0.0000   0.0000   0.1261
  -9.500  -0.3119   0.10140   0.09879  -0.0359  1.0000  0.0200  -1.6920   0.0000   0.0000   0.0000   0.1256
  -9.400  -0.3112   0.10031   0.09771  -0.0360  1.0000  0.0202  -1.6854   0.0000   0.0000   0.0000   0.1251
  -9.300  -0.3108   0.09923   0.09665  -0.0361  1.0000  0.0203  -1.6798   0.0000   0.0000   0.0000   0.1249
  -9.200  -0.3106   0.09818   0.09561  -0.0361  1.0000  0.0204  -1.6753   0.0000   0.0000   0.0000   0.1249
  -9.100  -0.3107   0.09714   0.09459  -0.0361  1.0000  0.0206  -1.6719   0.0000   0.0000   0.0000   0.1252
  -9.000  -0.3111   0.09613   0.09359  -0.0359  1.0000  0.0207  -1.6696   0.0000   0.0000   0.0000   0.1258
  -8.900  -0.3120   0.09515   0.09263  -0.0358  1.0000  0.0208  -1.6685   0.0000   0.0000   0.0000   0.1269
  -8.800  -0.3133   0.09421   0.09171  -0.0355  1.0000  0.0209  -1.6685   0.0000   0.0000   0.0000   0.1285
  -8.700  -0.3151   0.09332   0.09084  -0.0351  1.0000  0.0211  -1.6699   0.0000   0.0000   0.0000   0.1306
  -8.600  -0.3175   0.09248   0.09002  -0.0345  1.0000  0.0212  -1.6726   0.0000   0.0000   0.0000   0.1333
  -8.500  -0.3205   0.09170   0.08926  -0.0339  1.0000  0.0213  -1.6766   0.0000   0.0000   0.0000   0.1366
  -8.400  -0.3241   0.09096   0.08854  -0.0331  1.0000  0.0214  -1.6817   0.0000   0.0000   0.0000   0.1403
  -8.300  -0.3280   0.09026   0.08786  -0.0323  1.0000  0.0215  -1.6897   0.0000   0.0000   0.0000   0.1443
  -8.200  -0.3324   0.08959   0.08722  -0.0314  1.0000  0.0215  -1.7013   0.0000   0.0000   0.0000   0.1485
  -8.100  -0.3371   0.08894   0.08659  -0.0304  1.0000  0.0216  -1.7134   0.0000   0.0000   0.0000   0.1529
  -8.000  -0.3421   0.08831   0.08599  -0.0294  1.0000  0.0217  -1.7261   0.0000   0.0000   0.0000   0.1573
  -7.900  -0.3465   0.08762   0.08531  -0.0287  0.9999  0.0218  -1.7389   0.0000   0.0000   0.0000   0.1608
  -7.800  -0.3401   0.08578   0.08347  -0.0310  0.9988  0.0220  -1.7474   0.0000   0.0000   0.0000   0.1524
  -7.700  -0.3336   0.08391   0.08161  -0.0334  0.9974  0.0223  -1.7579   0.0000   0.0000   0.0000   0.1433
  -7.600  -0.3270   0.08202   0.07972  -0.0360  0.9957  0.0226  -1.7704   0.0000   0.0000   0.0000   0.1334
  -7.500  -0.3202   0.08008   0.07778  -0.0387  0.9938  0.0229  -1.7853   0.0000   0.0000   0.0000   0.1224
  -7.400  -0.3131   0.07807   0.07575  -0.0417  0.9919  0.0232  -1.8034   0.0000   0.0000   0.0000   0.1100
  -7.300  -0.3055   0.07598   0.07366  -0.0451  0.9901  0.0236  -1.8247   0.0000   0.0000   0.0000   0.0956
  -7.200  -0.3021   0.07421   0.07190  -0.0473  0.9868  0.0238  -1.8483   0.0000   0.0000   0.0000   0.0869
  -7.100  -0.2958   0.07204   0.06973  -0.0506  0.9834  0.0242  -1.8774   0.0000   0.0000   0.0000   0.0722
  -7.000  -0.2858   0.06941   0.06710  -0.0553  0.9805  0.0247  -1.9124   0.0000   0.0000   0.0000   0.0498
  -6.900  -0.2740   0.06653   0.06421  -0.0609  0.9780  0.0252  -1.9591   0.0000   0.0000   0.0000   0.0206
  -6.800  -0.2590   0.06365   0.06130  -0.0671  0.9759  0.0259  -2.0030   0.0000   0.0000   0.0000  -0.0163
  -6.700  -0.2424   0.06090   0.05850  -0.0730  0.9744  0.0264  -2.0393   0.0000   0.0000   0.0000  -0.0586
  -6.600  -0.2277   0.05797   0.05550  -0.0781  0.9730  0.0266  -2.0827   0.0000   0.0000   0.0000  -0.1013
  -6.500  -0.2140   0.05510   0.05254  -0.0827  0.9718  0.0267  -2.1266   0.0000   0.0000   0.0000  -0.1451
  -6.400  -0.2007   0.05238   0.04973  -0.0868  0.9707  0.0268  -2.1658   0.0000   0.0000   0.0000  -0.1915
  -6.300  -0.1967   0.05068   0.04797  -0.0877  0.9665  0.0268  -2.1923   0.0000   0.0000   0.0000  -0.2054
  -6.200  -0.1889   0.04872   0.04592  -0.0896  0.9633  0.0269  -2.2173   0.0000   0.0000   0.0000  -0.2340
  -6.100  -0.1791   0.04669   0.04378  -0.0917  0.9609  0.0269  -2.2385   0.0000   0.0000   0.0000  -0.2723
  -6.000  -0.1684   0.04470   0.04168  -0.0938  0.9589  0.0269  -2.2552   0.0000   0.0000   0.0000  -0.3176
  -5.900  -0.1577   0.04279   0.03966  -0.0957  0.9569  0.0269  -2.2675   0.0000   0.0000   0.0000  -0.3681
  -5.200  -0.1007   0.02269   0.01795  -0.1027  0.9387  0.0178  -3.0319   0.0000   0.0000   0.0000  -0.7871
  -4.900  -0.0677   0.01976   0.01467  -0.1029  0.9318  0.0167  -3.0043   0.0000   0.0000   0.0000  -1.2953
  -4.800  -0.0565   0.01869   0.01343  -0.1030  0.9298  0.0167  -3.0097   0.0000   0.0000   0.0000  -1.6040
  -4.700  -0.0449   0.01790   0.01250  -0.1030  0.9280  0.0168  -2.9955   0.0000   0.0000   0.0000  -2.0790
  -4.600  -0.0333   0.01739   0.01188  -0.1030  0.9261  0.0170  -2.9592   0.0000   0.0000   0.0000  -2.8911
  -4.500  -0.0223   0.01707   0.01148  -0.1028  0.9238  0.0173  -2.9104   0.0000   0.0000   0.0000  -4.4248
  -4.400  -0.0155   0.01498   0.00913  -0.1022  0.9203  0.0183  -3.0412   0.0000   0.0000   0.0000  -6.4574
  -4.300  -0.0063   0.01430   0.00841  -0.1018  0.9171  0.0194  -3.0093   0.0000   0.0000   0.0000  -16.2729
  -4.200   0.0040   0.01401   0.00812  -0.1016  0.9141  0.0204  -2.9336   0.0000   0.0000   0.0000  25.8279
  -4.100   0.0147   0.01375   0.00784  -0.1015  0.9114  0.0214  -2.8571   0.0000   0.0000   0.0000   7.2280
  -4.000   0.0256   0.01348   0.00753  -0.1013  0.9088  0.0225  -2.7851   0.0000   0.0000   0.0000   4.2548
  -3.900   0.0366   0.01319   0.00721  -0.1011  0.9064  0.0236  -2.7146   0.0000   0.0000   0.0000   3.0516
  -3.800   0.0476   0.01300   0.00697  -0.1009  0.9041  0.0249  -2.6349   0.0000   0.0000   0.0000   2.3988
  -3.700   0.0590   0.01304   0.00700  -0.1008  0.9018  0.0263  -2.5279   0.0000   0.0000   0.0000   1.9803
  -3.600   0.0688   0.01255   0.00644  -0.1005  0.8989  0.0282  -2.4742   0.0000   0.0000   0.0000   1.7281
  -3.500   0.0781   0.01190   0.00576  -0.1001  0.8953  0.0308  -2.4346   0.0000   0.0000   0.0000   1.5480
  -3.400   0.0883   0.01164   0.00549  -0.0999  0.8918  0.0325  -2.3593   0.0000   0.0000   0.0000   1.3944
  -3.300   0.0988   0.01142   0.00525  -0.0996  0.8885  0.0341  -2.2790   0.0000   0.0000   0.0000   1.2697
  -3.200   0.1095   0.01121   0.00501  -0.0994  0.8855  0.0358  -2.1977   0.0000   0.0000   0.0000   1.1676
  -3.100   0.1203   0.01102   0.00479  -0.0992  0.8827  0.0375  -2.1147   0.0000   0.0000   0.0000   1.0830
  -3.000   0.1313   0.01091   0.00465  -0.0990  0.8800  0.0396  -2.0228   0.0000   0.0000   0.0000   1.0116
  -2.900   0.1425   0.01085   0.00456  -0.0989  0.8774  0.0409  -1.9287   0.0000   0.0000   0.0000   0.9504
  -2.800   0.1526   0.01048   0.00414  -0.0986  0.8737  0.0437  -1.8660   0.0000   0.0000   0.0000   0.9020
  -2.700   0.1631   0.01022   0.00386  -0.0984  0.8698  0.0472  -1.7934   0.0000   0.0000   0.0000   0.8584
  -2.600   0.1739   0.01004   0.00368  -0.0982  0.8661  0.0508  -1.7113   0.0000   0.0000   0.0000   0.8195
  -2.500   0.1847   0.00990   0.00352  -0.0980  0.8625  0.0552  -1.6277   0.0000   0.0000   0.0000   0.7848
  -2.400   0.1957   0.00975   0.00334  -0.0978  0.8592  0.0615  -1.5465   0.0000   0.0000   0.0000   0.7536
  -2.300   0.2064   0.00934   0.00312  -0.0978  0.8561  0.1118  -1.4720   0.0000   0.0000   0.0000   0.7269
  -2.200   0.2171   0.00904   0.00302  -0.0978  0.8529  0.1719  -1.3888   0.0000   0.0000   0.0000   0.7033
  -2.100   0.2275   0.00882   0.00296  -0.0977  0.8487  0.2190  -1.3166   0.0000   0.0000   0.0000   0.6822
  -2.000   0.2380   0.00862   0.00290  -0.0977  0.8444  0.2609  -1.2509   0.0000   0.0000   0.0000   0.6627
  -1.900   0.2486   0.00844   0.00284  -0.0976  0.8402  0.3022  -1.1850   0.0000   0.0000   0.0000   0.6445
  -1.800   0.2593   0.00827   0.00277  -0.0975  0.8363  0.3463  -1.1191   0.0000   0.0000   0.0000   0.6277
  -1.600   0.2806   0.00792   0.00267  -0.0973  0.8290  0.4443  -0.9891   0.0000   0.0000   0.0000   0.5979
  -1.400   0.3014   0.00763   0.00264  -0.0970  0.8195  0.5324  -0.8639   0.0000   0.0000   0.0000   0.5725
  -1.300   0.3117   0.00749   0.00262  -0.0967  0.8149  0.5760  -0.8024   0.0000   0.0000   0.0000   0.5609
  -1.200   0.3219   0.00736   0.00260  -0.0964  0.8106  0.6203  -0.7419   0.0000   0.0000   0.0000   0.5499
  -1.000   0.3416   0.00714   0.00260  -0.0956  0.8016  0.7053  -0.6349   0.0000   0.0000   0.0000   0.5299
  -0.900   0.3512   0.00706   0.00260  -0.0951  0.7963  0.7380  -0.6075   0.0000   0.0000   0.0000   0.5207
  -0.800   0.3606   0.00699   0.00259  -0.0945  0.7913  0.7676  -0.6168   0.0000   0.0000   0.0000   0.5119
  -0.700   0.3701   0.00693   0.00256  -0.0939  0.7865  0.7930  -0.6262   0.0000   0.0000   0.0000   0.5034
  -0.600   0.3795   0.00689   0.00254  -0.0933  0.7820  0.8150  -0.6356   0.0000   0.0000   0.0000   0.4954
  -0.500   0.3886   0.00684   0.00254  -0.0927  0.7764  0.8370  -0.6448   0.0000   0.0000   0.0000   0.4880
  -0.400   0.3971   0.00679   0.00252  -0.0919  0.7708  0.8605  -0.6537   0.0000   0.0000   0.0000   0.4807
  -0.300   0.4053   0.00674   0.00249  -0.0910  0.7655  0.8846  -0.6624   0.0000   0.0000   0.0000   0.4737
  -0.200   0.4137   0.00670   0.00244  -0.0901  0.7605  0.9108  -0.6713   0.0000   0.0000   0.0000   0.4668
  -0.100   0.4252   0.00664   0.00240  -0.0899  0.7550  0.9406  -0.6820   0.0000   0.0000   0.0000   0.4603
   0.100   0.4591   0.00658   0.00227  -0.0922  0.7430  1.0000  -0.7116   0.0000   0.0000   0.0000   0.4495
   0.200   0.4701   0.00662   0.00222  -0.0921  0.7376  1.0000  -0.7228   0.0000   0.0000   0.0000   0.4445
   0.300   0.4811   0.00665   0.00221  -0.0921  0.7318  1.0000  -0.7341   0.0000   0.0000   0.0000   0.4399
   0.400   0.4921   0.00667   0.00220  -0.0920  0.7254  1.0000  -0.7453   0.0000   0.0000   0.0000   0.4354
   0.500   0.5029   0.00671   0.00218  -0.0919  0.7190  1.0000  -0.7566   0.0000   0.0000   0.0000   0.4311
   0.600   0.5138   0.00676   0.00216  -0.0918  0.7130  1.0000  -0.7688   0.0000   0.0000   0.0000   0.4269
   0.700   0.5248   0.00679   0.00216  -0.0918  0.7067  1.0000  -0.7812   0.0000   0.0000   0.0000   0.4230
   0.800   0.5357   0.00683   0.00216  -0.0917  0.7001  1.0000  -0.7935   0.0000   0.0000   0.0000   0.4192
   0.900   0.5466   0.00688   0.00215  -0.0916  0.6939  1.0000  -0.8065   0.0000   0.0000   0.0000   0.4155
   1.000   0.5574   0.00694   0.00215  -0.0915  0.6881  1.0000  -0.8201   0.0000   0.0000   0.0000   0.4120
   1.100   0.5684   0.00697   0.00216  -0.0915  0.6816  1.0000  -0.8338   0.0000   0.0000   0.0000   0.4087
   1.200   0.5793   0.00702   0.00217  -0.0914  0.6747  1.0000  -0.8475   0.0000   0.0000   0.0000   0.4054
   1.300   0.5900   0.00708   0.00217  -0.0913  0.6680  1.0000  -0.8611   0.0000   0.0000   0.0000   0.4022
   1.400   0.6008   0.00713   0.00218  -0.0912  0.6616  1.0000  -0.8749   0.0000   0.0000   0.0000   0.3992
   1.500   0.6117   0.00718   0.00219  -0.0911  0.6545  1.0000  -0.8887   0.0000   0.0000   0.0000   0.3963
   1.600   0.6224   0.00724   0.00221  -0.0910  0.6474  1.0000  -0.9039   0.0000   0.0000   0.0000   0.3935
   1.700   0.6330   0.00732   0.00222  -0.0909  0.6409  1.0000  -0.9190   0.0000   0.0000   0.0000   0.3907
   1.800   0.6440   0.00736   0.00225  -0.0908  0.6340  1.0000  -0.9345   0.0000   0.0000   0.0000   0.3881
   1.900   0.6547   0.00741   0.00227  -0.0907  0.6267  1.0000  -0.9499   0.0000   0.0000   0.0000   0.3855
   2.000   0.6652   0.00750   0.00229  -0.0906  0.6197  1.0000  -0.9651   0.0000   0.0000   0.0000   0.3830
   2.100   0.6760   0.00755   0.00231  -0.0905  0.6127  1.0000  -0.9806   0.0000   0.0000   0.0000   0.3806
   2.200   0.6867   0.00761   0.00234  -0.0904  0.6051  1.0000  -0.9961   0.0000   0.0000   0.0000   0.3783
   2.300   0.6972   0.00769   0.00236  -0.0902  0.5977  1.0000  -1.0115   0.0000   0.0000   0.0000   0.3760
   2.400   0.7078   0.00777   0.00240  -0.0901  0.5908  1.0000  -1.0270   0.0000   0.0000   0.0000   0.3738
   2.500   0.7185   0.00782   0.00243  -0.0900  0.5833  1.0000  -1.0427   0.0000   0.0000   0.0000   0.3717
   2.600   0.7290   0.00790   0.00246  -0.0899  0.5759  1.0000  -1.0582   0.0000   0.0000   0.0000   0.3696
   2.700   0.7394   0.00800   0.00250  -0.0898  0.5690  1.0000  -1.0743   0.0000   0.0000   0.0000   0.3676
   2.800   0.7502   0.00805   0.00254  -0.0897  0.5620  1.0000  -1.0921   0.0000   0.0000   0.0000   0.3657
   2.900   0.7608   0.00812   0.00258  -0.0896  0.5547  1.0000  -1.1096   0.0000   0.0000   0.0000   0.3638
   3.000   0.7710   0.00823   0.00263  -0.0894  0.5476  1.0000  -1.1270   0.0000   0.0000   0.0000   0.3619
   3.100   0.7817   0.00829   0.00270  -0.0893  0.5406  1.0000  -1.1448   0.0000   0.0000   0.0000   0.3601
   3.200   0.7923   0.00836   0.00274  -0.0892  0.5329  1.0000  -1.1625   0.0000   0.0000   0.0000   0.3583
   3.300   0.8025   0.00847   0.00279  -0.0890  0.5255  1.0000  -1.1800   0.0000   0.0000   0.0000   0.3566
   3.400   0.8130   0.00855   0.00285  -0.0889  0.5187  1.0000  -1.1978   0.0000   0.0000   0.0000   0.3549
   3.500   0.8236   0.00862   0.00290  -0.0888  0.5115  1.0000  -1.2158   0.0000   0.0000   0.0000   0.3533
   3.600   0.8339   0.00871   0.00296  -0.0887  0.5046  1.0000  -1.2335   0.0000   0.0000   0.0000   0.3517
   3.700   0.8441   0.00882   0.00302  -0.0885  0.4982  1.0000  -1.2512   0.0000   0.0000   0.0000   0.3501
   3.800   0.8548   0.00888   0.00308  -0.0884  0.4917  1.0000  -1.2711   0.0000   0.0000   0.0000   0.3486
   3.900   0.8652   0.00897   0.00314  -0.0883  0.4846  1.0000  -1.2915   0.0000   0.0000   0.0000   0.3471
   4.000   0.8752   0.00909   0.00320  -0.0881  0.4776  1.0000  -1.3116   0.0000   0.0000   0.0000   0.3456
   4.100   0.8857   0.00917   0.00327  -0.0880  0.4709  1.0000  -1.3322   0.0000   0.0000   0.0000   0.3442
   4.200   0.8961   0.00925   0.00334  -0.0879  0.4635  1.0000  -1.3529   0.0000   0.0000   0.0000   0.3428
   4.300   0.9061   0.00937   0.00341  -0.0877  0.4561  1.0000  -1.3732   0.0000   0.0000   0.0000   0.3414
   4.400   0.9162   0.00948   0.00348  -0.0875  0.4494  1.0000  -1.3965   0.0000   0.0000   0.0000   0.3400
   4.500   0.9267   0.00956   0.00359  -0.0874  0.4425  1.0000  -1.4207   0.0000   0.0000   0.0000   0.3387
   4.600   0.9368   0.00966   0.00367  -0.0872  0.4356  1.0000  -1.4446   0.0000   0.0000   0.0000   0.3374
   4.700   0.9466   0.00980   0.00376  -0.0870  0.4291  1.0000  -1.4681   0.0000   0.0000   0.0000   0.3361
   4.800   0.9571   0.00988   0.00384  -0.0869  0.4232  1.0000  -1.4926   0.0000   0.0000   0.0000   0.3349
   4.900   0.9674   0.00997   0.00392  -0.0868  0.4166  1.0000  -1.5188   0.0000   0.0000   0.0000   0.3337
   5.000   0.9773   0.01009   0.00401  -0.0866  0.4098  1.0000  -1.5470   0.0000   0.0000   0.0000   0.3325
   5.100   0.9870   0.01023   0.00411  -0.0864  0.4032  1.0000  -1.5754   0.0000   0.0000   0.0000   0.3313
   5.200   0.9975   0.01030   0.00419  -0.0863  0.3966  1.0000  -1.6100   0.0000   0.0000   0.0000   0.3301
   5.300   1.0074   0.01042   0.00428  -0.0861  0.3894  1.0000  -1.6440   0.0000   0.0000   0.0000   0.3290
   5.400   1.0169   0.01057   0.00439  -0.0858  0.3825  1.0000  -1.6775   0.0000   0.0000   0.0000   0.3278
   5.500   1.0271   0.01067   0.00448  -0.0857  0.3765  1.0000  -1.7123   0.0000   0.0000   0.0000   0.3267
   5.600   1.0373   0.01077   0.00458  -0.0855  0.3699  1.0000  -1.7473   0.0000   0.0000   0.0000   0.3257
   5.700   1.0469   0.01090   0.00469  -0.0853  0.3631  1.0000  -1.7816   0.0000   0.0000   0.0000   0.3246
   5.800   1.0563   0.01106   0.00480  -0.0851  0.3564  1.0000  -1.8156   0.0000   0.0000   0.0000   0.3235
   5.900   1.0666   0.01115   0.00493  -0.0849  0.3501  1.0000  -1.8515   0.0000   0.0000   0.0000   0.3225
   6.000   1.0763   0.01127   0.00504  -0.0847  0.3432  1.0000  -1.8880   0.0000   0.0000   0.0000   0.3214
   6.100   1.0856   0.01143   0.00516  -0.0845  0.3366  1.0000  -1.9286   0.0000   0.0000   0.0000   0.3204
   6.200   1.0954   0.01156   0.00528  -0.0843  0.3309  1.0000  -1.9706   0.0000   0.0000   0.0000   0.3194
   6.300   1.1054   0.01166   0.00539  -0.0841  0.3247  1.0000  -2.0133   0.0000   0.0000   0.0000   0.3184
   6.400   1.1149   0.01180   0.00551  -0.0839  0.3178  1.0000  -2.0552   0.0000   0.0000   0.0000   0.3174
   6.500   1.1237   0.01200   0.00565  -0.0835  0.3107  1.0000  -2.0959   0.0000   0.0000   0.0000   0.3164
   6.600   1.1338   0.01209   0.00576  -0.0834  0.3044  1.0000  -2.1397   0.0000   0.0000   0.0000   0.3155
   6.700   1.1433   0.01222   0.00588  -0.0831  0.2971  1.0000  -2.1825   0.0000   0.0000   0.0000   0.3145
   6.800   1.1521   0.01241   0.00602  -0.0828  0.2899  1.0000  -2.2241   0.0000   0.0000   0.0000   0.3136
   6.900   1.1615   0.01255   0.00616  -0.0826  0.2837  1.0000  -2.2678   0.0000   0.0000   0.0000   0.3127
   7.000   1.1712   0.01267   0.00628  -0.0824  0.2771  1.0000  -2.3190   0.0000   0.0000   0.0000   0.3118
   7.100   1.1802   0.01284   0.00643  -0.0821  0.2706  1.0000  -2.3690   0.0000   0.0000   0.0000   0.3108
   7.200   1.1887   0.01305   0.00659  -0.0817  0.2643  1.0000  -2.4178   0.0000   0.0000   0.0000   0.3099
   7.300   1.1986   0.01316   0.00673  -0.0815  0.2593  1.0000  -2.4705   0.0000   0.0000   0.0000   0.3090
   7.400   1.2080   0.01329   0.00690  -0.0813  0.2534  1.0000  -2.5293   0.0000   0.0000   0.0000   0.3082
   7.500   1.2168   0.01348   0.00706  -0.0809  0.2470  1.0000  -2.5872   0.0000   0.0000   0.0000   0.3073
   7.600   1.2249   0.01370   0.00724  -0.0805  0.2404  1.0000  -2.6437   0.0000   0.0000   0.0000   0.3064
   7.700   1.2346   0.01381   0.00738  -0.0803  0.2349  1.0000  -2.7056   0.0000   0.0000   0.0000   0.3056
   7.800   1.2436   0.01397   0.00753  -0.0800  0.2282  1.0000  -2.7655   0.0000   0.0000   0.0000   0.3047
   7.900   1.2517   0.01420   0.00771  -0.0796  0.2215  1.0000  -2.8397   0.0000   0.0000   0.0000   0.3038
   8.000   1.2603   0.01438   0.00789  -0.0792  0.2157  1.0000  -2.9326   0.0000   0.0000   0.0000   0.3030
   8.100   1.2695   0.01452   0.00805  -0.0790  0.2104  1.0000  -3.0299   0.0000   0.0000   0.0000   0.3022
   8.200   1.2781   0.01470   0.00822  -0.0786  0.2046  1.0000  -3.1252   0.0000   0.0000   0.0000   0.3013
   8.300   1.2859   0.01494   0.00843  -0.0781  0.1986  1.0000  -3.2174   0.0000   0.0000   0.0000   0.3004
   8.400   1.2942   0.01514   0.00862  -0.0777  0.1934  1.0000  -3.3238   0.0000   0.0000   0.0000   0.2996
   8.500   1.3031   0.01529   0.00880  -0.0774  0.1885  1.0000  -3.4426   0.0000   0.0000   0.0000   0.2988
   8.600   1.3114   0.01548   0.00898  -0.0770  0.1827  1.0000  -3.5584   0.0000   0.0000   0.0000   0.2980
   8.700   1.3186   0.01574   0.00921  -0.0765  0.1764  1.0000  -3.6694   0.0000   0.0000   0.0000   0.2971
   8.800   1.3265   0.01596   0.00942  -0.0760  0.1709  1.0000  -3.7854   0.0000   0.0000   0.0000   0.2963
   8.900   1.3350   0.01613   0.00961  -0.0757  0.1654  1.0000  -3.9073   0.0000   0.0000   0.0000   0.2955
   9.000   1.3425   0.01636   0.00982  -0.0752  0.1592  1.0000  -4.0242   0.0000   0.0000   0.0000   0.2947
   9.100   1.3488   0.01667   0.01008  -0.0745  0.1526  1.0000  -4.1342   0.0000   0.0000   0.0000   0.2938
   9.200   1.3569   0.01686   0.01033  -0.0741  0.1476  1.0000  -4.2513   0.0000   0.0000   0.0000   0.2930
   9.300   1.3647   0.01706   0.01054  -0.0736  0.1420  1.0000  -4.3721   0.0000   0.0000   0.0000   0.2922
   9.400   1.3712   0.01734   0.01078  -0.0730  0.1356  1.0000  -4.4867   0.0000   0.0000   0.0000   0.2913
   9.500   1.3768   0.01768   0.01108  -0.0722  0.1287  1.0000  -4.5950   0.0000   0.0000   0.0000   0.2904
   9.600   1.3846   0.01786   0.01129  -0.0718  0.1237  1.0000  -4.7210   0.0000   0.0000   0.0000   0.2896
   9.700   1.3910   0.01813   0.01155  -0.0711  0.1173  1.0000  -4.8378   0.0000   0.0000   0.0000   0.2888
   9.800   1.3957   0.01850   0.01186  -0.0703  0.1103  1.0000  -4.9440   0.0000   0.0000   0.0000   0.2878
   9.900   1.4015   0.01876   0.01213  -0.0695  0.1052  1.0000  -5.0584   0.0000   0.0000   0.0000   0.2869
  10.000   1.4070   0.01902   0.01240  -0.0687  0.1001  1.0000  -5.1715   0.0000   0.0000   0.0000   0.2860
  10.100   1.4108   0.01937   0.01270  -0.0676  0.0945  1.0000  -5.2739   0.0000   0.0000   0.0000   0.2849
  10.200   1.4131   0.01980   0.01309  -0.0663  0.0882  1.0000  -5.3641   0.0000   0.0000   0.0000   0.2838
  10.300   1.4188   0.02004   0.01337  -0.0655  0.0848  1.0000  -5.4811   0.0000   0.0000   0.0000   0.2829
  10.400   1.4232   0.02035   0.01369  -0.0646  0.0808  1.0000  -5.5900   0.0000   0.0000   0.0000   0.2820
  10.500   1.4264   0.02074   0.01404  -0.0635  0.0765  1.0000  -5.6903   0.0000   0.0000   0.0000   0.2809
  10.600   1.4284   0.02121   0.01447  -0.0623  0.0717  1.0000  -5.7804   0.0000   0.0000   0.0000   0.2799
  10.700   1.4308   0.02165   0.01492  -0.0611  0.0679  1.0000  -5.8726   0.0000   0.0000   0.0000   0.2788
  10.800   1.4366   0.02189   0.01521  -0.0604  0.0659  1.0000  -5.9958   0.0000   0.0000   0.0000   0.2780
  10.900   1.4412   0.02221   0.01555  -0.0596  0.0633  1.0000  -6.1096   0.0000   0.0000   0.0000   0.2772
  11.000   1.4449   0.02259   0.01593  -0.0587  0.0605  1.0000  -6.2168   0.0000   0.0000   0.0000   0.2763
  11.100   1.4476   0.02304   0.01636  -0.0577  0.0576  1.0000  -6.3166   0.0000   0.0000   0.0000   0.2753
  11.200   1.4490   0.02358   0.01687  -0.0566  0.0543  1.0000  -6.4047   0.0000   0.0000   0.0000   0.2744
  11.300   1.4482   0.02425   0.01756  -0.0552  0.0511  1.0000  -6.4717   0.0000   0.0000   0.0000   0.2733
  11.400   1.4535   0.02455   0.01790  -0.0545  0.0499  1.0000  -6.5951   0.0000   0.0000   0.0000   0.2725
  11.500   1.4593   0.02482   0.01821  -0.0540  0.0486  1.0000  -6.7237   0.0000   0.0000   0.0000   0.2718
  11.600   1.4642   0.02514   0.01857  -0.0533  0.0469  1.0000  -6.8461   0.0000   0.0000   0.0000   0.2711
  11.700   1.4682   0.02553   0.01898  -0.0526  0.0451  1.0000  -6.9616   0.0000   0.0000   0.0000   0.2703
  11.800   1.4713   0.02599   0.01944  -0.0519  0.0432  1.0000  -7.0701   0.0000   0.0000   0.0000   0.2696
  11.900   1.4736   0.02651   0.02000  -0.0510  0.0413  1.0000  -7.1738   0.0000   0.0000   0.0000   0.2688
  12.000   1.4749   0.02711   0.02060  -0.0501  0.0393  1.0000  -7.2668   0.0000   0.0000   0.0000   0.2679
  12.100   1.4748   0.02783   0.02133  -0.0491  0.0371  1.0000  -7.3439   0.0000   0.0000   0.0000   0.2671
  12.200   1.4726   0.02870   0.02225  -0.0479  0.0353  1.0000  -7.3993   0.0000   0.0000   0.0000   0.2661
  12.300   1.4782   0.02902   0.02260  -0.0474  0.0345  1.0000  -7.5327   0.0000   0.0000   0.0000   0.2656
  12.400   1.4840   0.02933   0.02295  -0.0470  0.0337  1.0000  -7.6690   0.0000   0.0000   0.0000   0.2650
  12.500   1.4887   0.02972   0.02338  -0.0466  0.0326  1.0000  -7.7947   0.0000   0.0000   0.0000   0.2644
  12.600   1.4925   0.03018   0.02388  -0.0460  0.0314  1.0000  -7.9129   0.0000   0.0000   0.0000   0.2637
  12.700   1.4954   0.03072   0.02444  -0.0455  0.0300  1.0000  -8.0235   0.0000   0.0000   0.0000   0.2631
  12.800   1.4976   0.03133   0.02506  -0.0449  0.0287  1.0000  -8.1266   0.0000   0.0000   0.0000   0.2625
  12.900   1.4988   0.03203   0.02577  -0.0442  0.0274  1.0000  -8.2201   0.0000   0.0000   0.0000   0.2619
  13.000   1.4992   0.03282   0.02656  -0.0436  0.0260  1.0000  -8.3051   0.0000   0.0000   0.0000   0.2612
  13.100   1.4983   0.03374   0.02750  -0.0429  0.0246  1.0000  -8.3742   0.0000   0.0000   0.0000   0.2606
  13.200   1.4954   0.03485   0.02866  -0.0421  0.0231  1.0000  -8.4195   0.0000   0.0000   0.0000   0.2599
  13.300   1.4985   0.03544   0.02929  -0.0417  0.0224  1.0000  -8.5286   0.0000   0.0000   0.0000   0.2594
  13.400   1.5026   0.03596   0.02986  -0.0414  0.0215  1.0000  -8.6478   0.0000   0.0000   0.0000   0.2589
  13.500   1.5054   0.03661   0.03055  -0.0410  0.0202  1.0000  -8.7526   0.0000   0.0000   0.0000   0.2584
  13.600   1.5066   0.03741   0.03136  -0.0406  0.0187  1.0000  -8.8417   0.0000   0.0000   0.0000   0.2580
  13.700   1.5056   0.03844   0.03239  -0.0402  0.0172  1.0000  -8.9081   0.0000   0.0000   0.0000   0.2575
  13.800   1.5019   0.03979   0.03373  -0.0397  0.0156  1.0000  -8.9410   0.0000   0.0000   0.0000   0.2571
  13.900   1.4959   0.04141   0.03540  -0.0393  0.0141  1.0000  -8.9393   0.0000   0.0000   0.0000   0.2567
  14.000   1.4968   0.04234   0.03638  -0.0391  0.0130  1.0000  -9.0120   0.0000   0.0000   0.0000   0.2563
  14.100   1.4953   0.04354   0.03762  -0.0388  0.0120  1.0000  -9.0602   0.0000   0.0000   0.0000   0.2560
  14.200   1.4928   0.04489   0.03899  -0.0387  0.0111  1.0000  -9.0996   0.0000   0.0000   0.0000   0.2557
  14.300   1.4891   0.04640   0.04052  -0.0386  0.0104  1.0000  -9.1277   0.0000   0.0000   0.0000   0.2555
  14.400   1.4838   0.04815   0.04230  -0.0385  0.0097  1.0000  -9.1344   0.0000   0.0000   0.0000   0.2554
  14.500   1.4764   0.05022   0.04443  -0.0386  0.0091  1.0000  -9.1108   0.0000   0.0000   0.0000   0.2553
  14.600   1.4675   0.05255   0.04685  -0.0389  0.0087  1.0000  -9.0685   0.0000   0.0000   0.0000   0.2554
  14.700   1.4646   0.05416   0.04852  -0.0391  0.0085  1.0000  -9.0983   0.0000   0.0000   0.0000   0.2554
  14.800   1.4631   0.05564   0.05005  -0.0393  0.0083  1.0000  -9.1443   0.0000   0.0000   0.0000   0.2554
  14.900   1.4610   0.05722   0.05169  -0.0396  0.0080  1.0000  -9.1828   0.0000   0.0000   0.0000   0.2554
  15.000   1.4582   0.05891   0.05345  -0.0400  0.0078  1.0000  -9.2143   0.0000   0.0000   0.0000   0.2555


