xflr5 v6.61

 Calculated polar for: SD7032-099-88

 1 1 Reynolds number fixed          Mach number fixed         

 xtrf =   1.000 (top)        1.000 (bottom)
 Mach =   0.000     Re =     0.325 e 6     Ncrit =   9.000

  alpha     CL        CD       CDp       Cm    Top Xtr Bot Xtr   Cpmin    Chinge    XCp    
 ------- -------- --------- --------- -------- ------- ------- -------- --------- ---------
 -10.000  -0.3129   0.10857   0.10570  -0.0344  1.0000  0.0225  -1.5968   0.0000   0.0000   0.0000   0.1302
  -9.900  -0.3118   0.10739   0.10453  -0.0347  1.0000  0.0227  -1.5962   0.0000   0.0000   0.0000   0.1291
  -9.800  -0.3108   0.10621   0.10336  -0.0350  1.0000  0.0230  -1.5964   0.0000   0.0000   0.0000   0.1279
  -9.700  -0.3100   0.10504   0.10220  -0.0352  1.0000  0.0232  -1.5974   0.0000   0.0000   0.0000   0.1269
  -9.600  -0.3092   0.10387   0.10105  -0.0355  1.0000  0.0234  -1.5993   0.0000   0.0000   0.0000   0.1259
  -9.500  -0.3086   0.10272   0.09991  -0.0357  1.0000  0.0236  -1.6022   0.0000   0.0000   0.0000   0.1250
  -9.400  -0.3082   0.10158   0.09878  -0.0360  1.0000  0.0238  -1.6063   0.0000   0.0000   0.0000   0.1242
  -9.300  -0.3080   0.10045   0.09767  -0.0362  1.0000  0.0241  -1.6119   0.0000   0.0000   0.0000   0.1236
  -9.200  -0.3081   0.09935   0.09659  -0.0363  1.0000  0.0243  -1.6189   0.0000   0.0000   0.0000   0.1232
  -9.100  -0.3084   0.09827   0.09553  -0.0365  1.0000  0.0245  -1.6278   0.0000   0.0000   0.0000   0.1230
  -9.000  -0.3091   0.09723   0.09450  -0.0366  1.0000  0.0248  -1.6384   0.0000   0.0000   0.0000   0.1230
  -8.900  -0.3102   0.09623   0.09352  -0.0366  1.0000  0.0250  -1.6507   0.0000   0.0000   0.0000   0.1235
  -8.800  -0.3117   0.09529   0.09260  -0.0366  1.0000  0.0252  -1.6643   0.0000   0.0000   0.0000   0.1244
  -8.700  -0.3138   0.09441   0.09174  -0.0364  1.0000  0.0254  -1.6790   0.0000   0.0000   0.0000   0.1258
  -8.600  -0.3161   0.09361   0.09097  -0.0361  1.0000  0.0256  -1.6925   0.0000   0.0000   0.0000   0.1278
  -8.500  -0.3191   0.09288   0.09027  -0.0357  1.0000  0.0258  -1.7064   0.0000   0.0000   0.0000   0.1305
  -8.400  -0.3227   0.09221   0.08962  -0.0351  1.0000  0.0259  -1.7235   0.0000   0.0000   0.0000   0.1337
  -8.300  -0.3264   0.09159   0.08902  -0.0344  1.0000  0.0260  -1.7392   0.0000   0.0000   0.0000   0.1373
  -8.200  -0.3303   0.09102   0.08847  -0.0336  1.0000  0.0262  -1.7528   0.0000   0.0000   0.0000   0.1412
  -8.100  -0.3346   0.09045   0.08793  -0.0327  1.0000  0.0262  -1.7665   0.0000   0.0000   0.0000   0.1452
  -8.000  -0.3393   0.08990   0.08740  -0.0318  1.0000  0.0263  -1.7806   0.0000   0.0000   0.0000   0.1494
  -7.900  -0.3443   0.08935   0.08687  -0.0309  1.0000  0.0263  -1.7949   0.0000   0.0000   0.0000   0.1537
  -7.800  -0.3496   0.08881   0.08636  -0.0299  1.0000  0.0264  -1.8096   0.0000   0.0000   0.0000   0.1581
  -7.700  -0.3467   0.08749   0.08505  -0.0314  0.9991  0.0265  -1.8242   0.0000   0.0000   0.0000   0.1533
  -7.600  -0.3394   0.08566   0.08322  -0.0342  0.9974  0.0266  -1.8400   0.0000   0.0000   0.0000   0.1430
  -7.500  -0.3322   0.08376   0.08133  -0.0371  0.9954  0.0267  -1.8576   0.0000   0.0000   0.0000   0.1319
  -7.400  -0.3248   0.08178   0.07934  -0.0403  0.9931  0.0267  -1.8772   0.0000   0.0000   0.0000   0.1196
  -7.300  -0.3166   0.07962   0.07718  -0.0439  0.9910  0.0268  -1.8993   0.0000   0.0000   0.0000   0.1049
  -7.200  -0.3084   0.07730   0.07486  -0.0476  0.9887  0.0268  -1.9237   0.0000   0.0000   0.0000   0.0891
  -7.100  -0.3005   0.07486   0.07242  -0.0514  0.9856  0.0268  -1.9511   0.0000   0.0000   0.0000   0.0724
  -7.000  -0.2913   0.07220   0.06972  -0.0558  0.9827  0.0269  -1.9839   0.0000   0.0000   0.0000   0.0518
  -6.900  -0.2812   0.06930   0.06681  -0.0607  0.9801  0.0269  -2.0236   0.0000   0.0000   0.0000   0.0275
  -6.800  -0.2702   0.06627   0.06373  -0.0655  0.9778  0.0269  -2.0684   0.0000   0.0000   0.0000   0.0007
  -6.700  -0.2590   0.06327   0.06067  -0.0700  0.9758  0.0269  -2.1143   0.0000   0.0000   0.0000  -0.0274
  -6.600  -0.2476   0.06039   0.05772  -0.0741  0.9742  0.0270  -2.1579   0.0000   0.0000   0.0000  -0.0569
  -6.500  -0.2505   0.05175   0.04900  -0.0822  0.9718  0.0282  -2.4233   0.0000   0.0000   0.0000  -0.0858
  -6.400  -0.2401   0.04928   0.04647  -0.0853  0.9707  0.0287  -2.4167   0.0000   0.0000   0.0000  -0.1130
  -6.300  -0.2367   0.04804   0.04518  -0.0854  0.9668  0.0289  -2.3977   0.0000   0.0000   0.0000  -0.1186
  -6.200  -0.2294   0.04687   0.04398  -0.0862  0.9638  0.0293  -2.3579   0.0000   0.0000   0.0000  -0.1334
  -6.100  -0.2200   0.04557   0.04266  -0.0874  0.9615  0.0297  -2.3171   0.0000   0.0000   0.0000  -0.1555
  -6.000  -0.2092   0.04418   0.04122  -0.0890  0.9595  0.0301  -2.2791   0.0000   0.0000   0.0000  -0.1837
  -5.900  -0.1975   0.04270   0.03968  -0.0908  0.9578  0.0306  -2.2455   0.0000   0.0000   0.0000  -0.2184
  -5.800  -0.1849   0.04115   0.03806  -0.0927  0.9563  0.0312  -2.2170   0.0000   0.0000   0.0000  -0.2602
  -5.700  -0.1717   0.03953   0.03635  -0.0947  0.9550  0.0319  -2.1937   0.0000   0.0000   0.0000  -0.3110
  -5.600  -0.1581   0.03788   0.03461  -0.0966  0.9537  0.0327  -2.1753   0.0000   0.0000   0.0000  -0.3716
  -5.500  -0.1445   0.03626   0.03288  -0.0984  0.9525  0.0336  -2.1617   0.0000   0.0000   0.0000  -0.4424
  -5.400  -0.1304   0.03467   0.03116  -0.1001  0.9512  0.0347  -2.1520   0.0000   0.0000   0.0000  -0.5296
  -5.300  -0.1163   0.03316   0.02952  -0.1016  0.9500  0.0358  -2.1450   0.0000   0.0000   0.0000  -0.6376
  -5.200  -0.1020   0.03178   0.02799  -0.1029  0.9488  0.0369  -2.1398   0.0000   0.0000   0.0000  -0.7743
  -5.100  -0.0937   0.03072   0.02682  -0.1028  0.9456  0.0375  -2.1391   0.0000   0.0000   0.0000  -0.8642
  -4.900  -0.0812   0.01996   0.01458  -0.1015  0.9370  0.0187  -3.0760   0.0000   0.0000   0.0000  -1.0224
  -4.800  -0.0691   0.01900   0.01346  -0.1017  0.9348  0.0186  -3.0793   0.0000   0.0000   0.0000  -1.2462
  -4.700  -0.0567   0.01810   0.01242  -0.1019  0.9329  0.0188  -3.0672   0.0000   0.0000   0.0000  -1.5767
  -4.600  -0.0441   0.01732   0.01155  -0.1022  0.9312  0.0192  -3.0360   0.0000   0.0000   0.0000  -2.1055
  -4.500  -0.0313   0.01674   0.01091  -0.1025  0.9295  0.0199  -2.9837   0.0000   0.0000   0.0000  -3.0783
  -4.400  -0.0184   0.01629   0.01041  -0.1028  0.9279  0.0207  -2.9232   0.0000   0.0000   0.0000  -5.4295
  -4.300  -0.0056   0.01589   0.00996  -0.1031  0.9262  0.0218  -2.8640   0.0000   0.0000   0.0000  -18.4427
  -4.200   0.0066   0.01552   0.00954  -0.1031  0.9244  0.0229  -2.8086   0.0000   0.0000   0.0000  16.2104
  -4.100   0.0148   0.01520   0.00917  -0.1024  0.9206  0.0238  -2.7631   0.0000   0.0000   0.0000   7.2894
  -4.000   0.0245   0.01488   0.00880  -0.1020  0.9173  0.0248  -2.7098   0.0000   0.0000   0.0000   4.4693
  -3.900   0.0353   0.01463   0.00850  -0.1018  0.9142  0.0257  -2.6428   0.0000   0.0000   0.0000   3.1724
  -3.800   0.0472   0.01488   0.00873  -0.1018  0.9114  0.0269  -2.5264   0.0000   0.0000   0.0000   2.4346
  -3.700   0.0568   0.01349   0.00723  -0.1016  0.9089  0.0301  -2.5312   0.0000   0.0000   0.0000   2.0599
  -3.600   0.0681   0.01317   0.00691  -0.1015  0.9065  0.0322  -2.4493   0.0000   0.0000   0.0000   1.7580
  -3.500   0.0796   0.01287   0.00659  -0.1014  0.9043  0.0339  -2.3761   0.0000   0.0000   0.0000   1.5394
  -3.400   0.0909   0.01260   0.00628  -0.1013  0.9022  0.0356  -2.3032   0.0000   0.0000   0.0000   1.3763
  -3.300   0.1014   0.01236   0.00601  -0.1010  0.8992  0.0372  -2.2309   0.0000   0.0000   0.0000   1.2569
  -3.200   0.1111   0.01216   0.00578  -0.1006  0.8954  0.0387  -2.1585   0.0000   0.0000   0.0000   1.1652
  -3.100   0.1215   0.01204   0.00565  -0.1003  0.8918  0.0402  -2.0729   0.0000   0.0000   0.0000   1.0842
  -3.000   0.1320   0.01176   0.00534  -0.1001  0.8885  0.0424  -1.9967   0.0000   0.0000   0.0000   1.0157
  -2.900   0.1425   0.01131   0.00485  -0.0999  0.8854  0.0462  -1.9349   0.0000   0.0000   0.0000   0.9572
  -2.800   0.1536   0.01106   0.00459  -0.0997  0.8826  0.0492  -1.8555   0.0000   0.0000   0.0000   0.9050
  -2.700   0.1647   0.01088   0.00438  -0.0995  0.8799  0.0523  -1.7720   0.0000   0.0000   0.0000   0.8594
  -2.600   0.1761   0.01072   0.00418  -0.0994  0.8774  0.0558  -1.6880   0.0000   0.0000   0.0000   0.8190
  -2.500   0.1863   0.01061   0.00404  -0.0991  0.8734  0.0594  -1.6086   0.0000   0.0000   0.0000   0.7860
  -2.400   0.1967   0.01028   0.00380  -0.0989  0.8694  0.0790  -1.5424   0.0000   0.0000   0.0000   0.7565
  -2.300   0.2069   0.00983   0.00361  -0.0988  0.8655  0.1483  -1.4667   0.0000   0.0000   0.0000   0.7311
  -2.200   0.2173   0.00952   0.00351  -0.0988  0.8619  0.2067  -1.3839   0.0000   0.0000   0.0000   0.7075
  -2.100   0.2280   0.00929   0.00341  -0.0987  0.8587  0.2543  -1.3151   0.0000   0.0000   0.0000   0.6855
  -2.000   0.2388   0.00908   0.00332  -0.0986  0.8556  0.3000  -1.2481   0.0000   0.0000   0.0000   0.6652
  -1.900   0.2495   0.00889   0.00325  -0.0985  0.8523  0.3471  -1.1820   0.0000   0.0000   0.0000   0.6469
  -1.800   0.2596   0.00871   0.00322  -0.0984  0.8477  0.3945  -1.1181   0.0000   0.0000   0.0000   0.6307
  -1.700   0.2698   0.00851   0.00319  -0.0982  0.8433  0.4462  -1.0544   0.0000   0.0000   0.0000   0.6155
  -1.600   0.2801   0.00833   0.00315  -0.0980  0.8391  0.4969  -0.9909   0.0000   0.0000   0.0000   0.6011
  -1.500   0.2905   0.00818   0.00310  -0.0977  0.8353  0.5410  -0.9276   0.0000   0.0000   0.0000   0.5874
  -1.400   0.3009   0.00803   0.00306  -0.0974  0.8318  0.5856  -0.8649   0.0000   0.0000   0.0000   0.5746
  -1.300   0.3108   0.00789   0.00306  -0.0970  0.8277  0.6336  -0.8048   0.0000   0.0000   0.0000   0.5629
  -1.200   0.3200   0.00776   0.00309  -0.0965  0.8227  0.6807  -0.7470   0.0000   0.0000   0.0000   0.5520
  -1.100   0.3291   0.00764   0.00309  -0.0958  0.8178  0.7213  -0.6899   0.0000   0.0000   0.0000   0.5416
  -0.900   0.3479   0.00747   0.00301  -0.0946  0.8092  0.7834  -0.6051   0.0000   0.0000   0.0000   0.5218
  -0.800   0.3571   0.00742   0.00299  -0.0939  0.8050  0.8077  -0.6144   0.0000   0.0000   0.0000   0.5128
  -0.600   0.3745   0.00731   0.00296  -0.0924  0.7942  0.8527  -0.6322   0.0000   0.0000   0.0000   0.4963
  -0.400   0.3909   0.00718   0.00285  -0.0904  0.7849  0.9028  -0.6497   0.0000   0.0000   0.0000   0.4807
  -0.300   0.4016   0.00711   0.00279  -0.0900  0.7799  0.9321  -0.6599   0.0000   0.0000   0.0000   0.4734
  -0.200   0.4189   0.00704   0.00272  -0.0911  0.7742  0.9649  -0.6738   0.0000   0.0000   0.0000   0.4667
  -0.100   0.4377   0.00700   0.00263  -0.0927  0.7685  1.0000  -0.6890   0.0000   0.0000   0.0000   0.4607
   0.000   0.4486   0.00702   0.00258  -0.0926  0.7632  1.0000  -0.7002   0.0000   0.0000   0.0000   0.4552
   0.100   0.4596   0.00705   0.00254  -0.0925  0.7580  1.0000  -0.7113   0.0000   0.0000   0.0000   0.4500
   0.200   0.4704   0.00707   0.00252  -0.0925  0.7517  1.0000  -0.7224   0.0000   0.0000   0.0000   0.4452
   0.300   0.4813   0.00709   0.00250  -0.0924  0.7456  1.0000  -0.7336   0.0000   0.0000   0.0000   0.4404
   0.400   0.4923   0.00712   0.00246  -0.0923  0.7400  1.0000  -0.7448   0.0000   0.0000   0.0000   0.4359
   0.500   0.5032   0.00716   0.00244  -0.0922  0.7345  1.0000  -0.7562   0.0000   0.0000   0.0000   0.4315
   0.600   0.5141   0.00719   0.00244  -0.0921  0.7280  1.0000  -0.7684   0.0000   0.0000   0.0000   0.4274
   0.700   0.5249   0.00722   0.00242  -0.0920  0.7214  1.0000  -0.7807   0.0000   0.0000   0.0000   0.4234
   0.800   0.5358   0.00727   0.00240  -0.0919  0.7153  1.0000  -0.7930   0.0000   0.0000   0.0000   0.4195
   0.900   0.5467   0.00731   0.00240  -0.0918  0.7093  1.0000  -0.8060   0.0000   0.0000   0.0000   0.4159
   1.000   0.5576   0.00734   0.00240  -0.0917  0.7026  1.0000  -0.8196   0.0000   0.0000   0.0000   0.4123
   1.100   0.5684   0.00739   0.00240  -0.0916  0.6962  1.0000  -0.8332   0.0000   0.0000   0.0000   0.4089
   1.200   0.5792   0.00745   0.00239  -0.0915  0.6902  1.0000  -0.8469   0.0000   0.0000   0.0000   0.4056
   1.300   0.5901   0.00749   0.00240  -0.0914  0.6839  1.0000  -0.8605   0.0000   0.0000   0.0000   0.4025
   1.400   0.6009   0.00753   0.00242  -0.0913  0.6769  1.0000  -0.8742   0.0000   0.0000   0.0000   0.3995
   1.500   0.6116   0.00759   0.00242  -0.0912  0.6700  1.0000  -0.8880   0.0000   0.0000   0.0000   0.3965
   1.600   0.6223   0.00766   0.00243  -0.0911  0.6636  1.0000  -0.9030   0.0000   0.0000   0.0000   0.3936
   1.700   0.6331   0.00770   0.00246  -0.0910  0.6565  1.0000  -0.9183   0.0000   0.0000   0.0000   0.3909
   1.800   0.6438   0.00776   0.00247  -0.0909  0.6493  1.0000  -0.9336   0.0000   0.0000   0.0000   0.3882
   1.900   0.6544   0.00784   0.00248  -0.0907  0.6427  1.0000  -0.9489   0.0000   0.0000   0.0000   0.3856
   2.000   0.6651   0.00789   0.00251  -0.0906  0.6358  1.0000  -0.9643   0.0000   0.0000   0.0000   0.3832
   2.100   0.6758   0.00794   0.00253  -0.0905  0.6284  1.0000  -0.9797   0.0000   0.0000   0.0000   0.3807
   2.200   0.6863   0.00802   0.00255  -0.0904  0.6213  1.0000  -0.9950   0.0000   0.0000   0.0000   0.3784
   2.300   0.6969   0.00809   0.00258  -0.0902  0.6143  1.0000  -1.0105   0.0000   0.0000   0.0000   0.3761
   2.400   0.7076   0.00815   0.00261  -0.0901  0.6066  1.0000  -1.0260   0.0000   0.0000   0.0000   0.3739
   2.500   0.7181   0.00823   0.00264  -0.0900  0.5992  1.0000  -1.0415   0.0000   0.0000   0.0000   0.3717
   2.600   0.7285   0.00832   0.00267  -0.0898  0.5923  1.0000  -1.0569   0.0000   0.0000   0.0000   0.3696
   2.700   0.7392   0.00837   0.00271  -0.0897  0.5848  1.0000  -1.0732   0.0000   0.0000   0.0000   0.3676
   2.800   0.7497   0.00845   0.00275  -0.0896  0.5773  1.0000  -1.0906   0.0000   0.0000   0.0000   0.3656
   2.900   0.7599   0.00856   0.00279  -0.0894  0.5704  1.0000  -1.1079   0.0000   0.0000   0.0000   0.3637
   3.000   0.7707   0.00861   0.00284  -0.0893  0.5634  1.0000  -1.1257   0.0000   0.0000   0.0000   0.3619
   3.100   0.7811   0.00868   0.00291  -0.0892  0.5560  1.0000  -1.1433   0.0000   0.0000   0.0000   0.3600
   3.200   0.7914   0.00879   0.00296  -0.0890  0.5488  1.0000  -1.1607   0.0000   0.0000   0.0000   0.3582
   3.300   0.8019   0.00886   0.00301  -0.0889  0.5417  1.0000  -1.1785   0.0000   0.0000   0.0000   0.3565
   3.400   0.8123   0.00894   0.00306  -0.0888  0.5340  1.0000  -1.1962   0.0000   0.0000   0.0000   0.3548
   3.500   0.8225   0.00904   0.00311  -0.0886  0.5265  1.0000  -1.2138   0.0000   0.0000   0.0000   0.3531
   3.600   0.8328   0.00914   0.00317  -0.0884  0.5197  1.0000  -1.2316   0.0000   0.0000   0.0000   0.3515
   3.700   0.8434   0.00921   0.00323  -0.0883  0.5126  1.0000  -1.2495   0.0000   0.0000   0.0000   0.3500
   3.800   0.8536   0.00930   0.00329  -0.0882  0.5056  1.0000  -1.2689   0.0000   0.0000   0.0000   0.3484
   4.000   0.8743   0.00949   0.00343  -0.0879  0.4925  1.0000  -1.3096   0.0000   0.0000   0.0000   0.3455
   4.100   0.8846   0.00958   0.00350  -0.0877  0.4853  1.0000  -1.3301   0.0000   0.0000   0.0000   0.3440
   4.200   0.8945   0.00970   0.00357  -0.0875  0.4782  1.0000  -1.3502   0.0000   0.0000   0.0000   0.3426
   4.300   0.9048   0.00980   0.00364  -0.0874  0.4714  1.0000  -1.3708   0.0000   0.0000   0.0000   0.3412
   4.400   0.9151   0.00988   0.00372  -0.0872  0.4639  1.0000  -1.3941   0.0000   0.0000   0.0000   0.3399
   4.500   0.9250   0.01000   0.00379  -0.0870  0.4565  1.0000  -1.4176   0.0000   0.0000   0.0000   0.3385
   4.600   0.9350   0.01013   0.00392  -0.0868  0.4497  1.0000  -1.4412   0.0000   0.0000   0.0000   0.3372
   4.700   0.9454   0.01021   0.00400  -0.0867  0.4429  1.0000  -1.4654   0.0000   0.0000   0.0000   0.3359
   4.800   0.9554   0.01031   0.00408  -0.0865  0.4360  1.0000  -1.4894   0.0000   0.0000   0.0000   0.3347
   4.900   0.9651   0.01046   0.00418  -0.0863  0.4296  1.0000  -1.5145   0.0000   0.0000   0.0000   0.3334
   5.000   0.9754   0.01055   0.00427  -0.0862  0.4235  1.0000  -1.5432   0.0000   0.0000   0.0000   0.3322
   5.100   0.9856   0.01064   0.00436  -0.0860  0.4167  1.0000  -1.5718   0.0000   0.0000   0.0000   0.3310
   5.200   0.9954   0.01077   0.00446  -0.0858  0.4098  1.0000  -1.6049   0.0000   0.0000   0.0000   0.3298
   5.300   1.0050   0.01092   0.00456  -0.0856  0.4031  1.0000  -1.6382   0.0000   0.0000   0.0000   0.3287
   5.400   1.0152   0.01100   0.00466  -0.0854  0.3963  1.0000  -1.6729   0.0000   0.0000   0.0000   0.3276
   5.500   1.0250   0.01112   0.00476  -0.0852  0.3892  1.0000  -1.7071   0.0000   0.0000   0.0000   0.3264
   5.600   1.0344   0.01129   0.00487  -0.0849  0.3824  1.0000  -1.7406   0.0000   0.0000   0.0000   0.3253
   5.700   1.0445   0.01139   0.00498  -0.0848  0.3763  1.0000  -1.7756   0.0000   0.0000   0.0000   0.3242
   5.800   1.0544   0.01150   0.00508  -0.0846  0.3696  1.0000  -1.8106   0.0000   0.0000   0.0000   0.3232
   5.900   1.0639   0.01164   0.00523  -0.0843  0.3627  1.0000  -1.8449   0.0000   0.0000   0.0000   0.3221
   6.000   1.0731   0.01181   0.00535  -0.0841  0.3561  1.0000  -1.8791   0.0000   0.0000   0.0000   0.3210
   6.100   1.0833   0.01190   0.00546  -0.0839  0.3496  1.0000  -1.9213   0.0000   0.0000   0.0000   0.3200
   6.200   1.0929   0.01203   0.00558  -0.0837  0.3427  1.0000  -1.9628   0.0000   0.0000   0.0000   0.3190
   6.300   1.1019   0.01221   0.00571  -0.0834  0.3362  1.0000  -2.0034   0.0000   0.0000   0.0000   0.3180
   6.400   1.1116   0.01234   0.00585  -0.0832  0.3304  1.0000  -2.0456   0.0000   0.0000   0.0000   0.3170
   6.500   1.1214   0.01245   0.00597  -0.0830  0.3238  1.0000  -2.0884   0.0000   0.0000   0.0000   0.3161
   6.600   1.1306   0.01261   0.00610  -0.0827  0.3168  1.0000  -2.1301   0.0000   0.0000   0.0000   0.3151
   6.700   1.1392   0.01281   0.00625  -0.0823  0.3098  1.0000  -2.1709   0.0000   0.0000   0.0000   0.3141
   6.800   1.1492   0.01290   0.00637  -0.0821  0.3033  1.0000  -2.2149   0.0000   0.0000   0.0000   0.3132
   6.900   1.1584   0.01305   0.00650  -0.0819  0.2960  1.0000  -2.2576   0.0000   0.0000   0.0000   0.3123
   7.000   1.1668   0.01326   0.00666  -0.0815  0.2890  1.0000  -2.3050   0.0000   0.0000   0.0000   0.3113
   7.100   1.1763   0.01339   0.00680  -0.0812  0.2828  1.0000  -2.3559   0.0000   0.0000   0.0000   0.3104
   7.200   1.1857   0.01353   0.00694  -0.0810  0.2762  1.0000  -2.4071   0.0000   0.0000   0.0000   0.3095
   7.300   1.1945   0.01371   0.00710  -0.0806  0.2697  1.0000  -2.4568   0.0000   0.0000   0.0000   0.3086
   7.400   1.2026   0.01394   0.00728  -0.0802  0.2636  1.0000  -2.5085   0.0000   0.0000   0.0000   0.3076
   7.500   1.2124   0.01404   0.00746  -0.0800  0.2584  1.0000  -2.5693   0.0000   0.0000   0.0000   0.3068
   7.600   1.2216   0.01419   0.00762  -0.0797  0.2523  1.0000  -2.6286   0.0000   0.0000   0.0000   0.3059
   7.700   1.2299   0.01439   0.00779  -0.0794  0.2459  1.0000  -2.6860   0.0000   0.0000   0.0000   0.3050
   7.800   1.2380   0.01462   0.00798  -0.0789  0.2396  1.0000  -2.7429   0.0000   0.0000   0.0000   0.3041
   7.900   1.2474   0.01474   0.00814  -0.0787  0.2337  1.0000  -2.8149   0.0000   0.0000   0.0000   0.3033
   8.000   1.2560   0.01492   0.00831  -0.0783  0.2271  1.0000  -2.9075   0.0000   0.0000   0.0000   0.3025
   8.100   1.2636   0.01516   0.00851  -0.0778  0.2204  1.0000  -2.9966   0.0000   0.0000   0.0000   0.3016
   8.200   1.2722   0.01534   0.00870  -0.0775  0.2149  1.0000  -3.0912   0.0000   0.0000   0.0000   0.3007
   8.300   1.2811   0.01550   0.00887  -0.0772  0.2093  1.0000  -3.1887   0.0000   0.0000   0.0000   0.2999
   8.400   1.2892   0.01570   0.00906  -0.0767  0.2035  1.0000  -3.2834   0.0000   0.0000   0.0000   0.2991
   8.500   1.2965   0.01596   0.00929  -0.0762  0.1975  1.0000  -3.3867   0.0000   0.0000   0.0000   0.2982
   8.600   1.3048   0.01615   0.00950  -0.0758  0.1925  1.0000  -3.5016   0.0000   0.0000   0.0000   0.2974
   8.700   1.3134   0.01632   0.00969  -0.0754  0.1872  1.0000  -3.6199   0.0000   0.0000   0.0000   0.2966
   8.800   1.3210   0.01654   0.00989  -0.0750  0.1812  1.0000  -3.7340   0.0000   0.0000   0.0000   0.2957
   8.900   1.3275   0.01684   0.01014  -0.0743  0.1749  1.0000  -3.8420   0.0000   0.0000   0.0000   0.2948
   9.000   1.3355   0.01703   0.01036  -0.0739  0.1696  1.0000  -3.9605   0.0000   0.0000   0.0000   0.2940
   9.100   1.3435   0.01723   0.01057  -0.0735  0.1637  1.0000  -4.0802   0.0000   0.0000   0.0000   0.2932
   9.300   1.3556   0.01784   0.01115  -0.0721  0.1507  1.0000  -4.2921   0.0000   0.0000   0.0000   0.2914
   9.400   1.3640   0.01800   0.01135  -0.0717  0.1459  1.0000  -4.4173   0.0000   0.0000   0.0000   0.2906
   9.500   1.3709   0.01824   0.01159  -0.0711  0.1398  1.0000  -4.5342   0.0000   0.0000   0.0000   0.2898
   9.600   1.3763   0.01857   0.01188  -0.0703  0.1333  1.0000  -4.6422   0.0000   0.0000   0.0000   0.2889
   9.700   1.3820   0.01887   0.01217  -0.0696  0.1273  1.0000  -4.7527   0.0000   0.0000   0.0000   0.2880
   9.800   1.3886   0.01909   0.01241  -0.0689  0.1216  1.0000  -4.8709   0.0000   0.0000   0.0000   0.2871
   9.900   1.3931   0.01941   0.01270  -0.0680  0.1153  1.0000  -4.9757   0.0000   0.0000   0.0000   0.2861
  10.000   1.3956   0.01983   0.01306  -0.0667  0.1086  1.0000  -5.0667   0.0000   0.0000   0.0000   0.2850
  10.100   1.4016   0.02006   0.01333  -0.0660  0.1040  1.0000  -5.1830   0.0000   0.0000   0.0000   0.2841
  10.200   1.4061   0.02038   0.01364  -0.0651  0.0987  1.0000  -5.2896   0.0000   0.0000   0.0000   0.2832
  10.300   1.4089   0.02079   0.01401  -0.0639  0.0934  1.0000  -5.3842   0.0000   0.0000   0.0000   0.2821
  10.400   1.4101   0.02129   0.01447  -0.0625  0.0877  1.0000  -5.4650   0.0000   0.0000   0.0000   0.2809
  10.500   1.4160   0.02154   0.01478  -0.0618  0.0847  1.0000  -5.5832   0.0000   0.0000   0.0000   0.2801
  10.600   1.4202   0.02189   0.01514  -0.0609  0.0809  1.0000  -5.6900   0.0000   0.0000   0.0000   0.2792
  10.700   1.4231   0.02231   0.01554  -0.0599  0.0771  1.0000  -5.7871   0.0000   0.0000   0.0000   0.2782
  10.800   1.4247   0.02282   0.01602  -0.0587  0.0731  1.0000  -5.8740   0.0000   0.0000   0.0000   0.2772
  10.900   1.4238   0.02349   0.01668  -0.0572  0.0688  1.0000  -5.9378   0.0000   0.0000   0.0000   0.2760
  11.000   1.4296   0.02376   0.01699  -0.0566  0.0670  1.0000  -6.0595   0.0000   0.0000   0.0000   0.2752
  11.100   1.4347   0.02407   0.01735  -0.0559  0.0648  1.0000  -6.1772   0.0000   0.0000   0.0000   0.2744
  11.200   1.4388   0.02444   0.01775  -0.0551  0.0622  1.0000  -6.2874   0.0000   0.0000   0.0000   0.2736
  11.300   1.4418   0.02489   0.01820  -0.0542  0.0596  1.0000  -6.3896   0.0000   0.0000   0.0000   0.2728
  11.400   1.4437   0.02543   0.01872  -0.0532  0.0570  1.0000  -6.4827   0.0000   0.0000   0.0000   0.2719
  11.500   1.4441   0.02607   0.01935  -0.0521  0.0541  1.0000  -6.5613   0.0000   0.0000   0.0000   0.2709
  11.600   1.4419   0.02689   0.02019  -0.0508  0.0514  1.0000  -6.6155   0.0000   0.0000   0.0000   0.2699
  11.700   1.4458   0.02732   0.02066  -0.0501  0.0500  1.0000  -6.7254   0.0000   0.0000   0.0000   0.2691
  11.800   1.4518   0.02760   0.02099  -0.0496  0.0487  1.0000  -6.8561   0.0000   0.0000   0.0000   0.2685
  11.900   1.4565   0.02798   0.02141  -0.0491  0.0472  1.0000  -6.9763   0.0000   0.0000   0.0000   0.2678
  12.000   1.4605   0.02841   0.02188  -0.0484  0.0456  1.0000  -7.0906   0.0000   0.0000   0.0000   0.2672
  12.100   1.4634   0.02892   0.02246  -0.0478  0.0439  1.0000  -7.2000   0.0000   0.0000   0.0000   0.2665
  12.200   1.4656   0.02949   0.02304  -0.0471  0.0423  1.0000  -7.3005   0.0000   0.0000   0.0000   0.2657
  12.300   1.4668   0.03015   0.02370  -0.0463  0.0406  1.0000  -7.3919   0.0000   0.0000   0.0000   0.2650
  12.400   1.4667   0.03093   0.02448  -0.0455  0.0388  1.0000  -7.4691   0.0000   0.0000   0.0000   0.2643
  12.500   1.4648   0.03187   0.02545  -0.0445  0.0370  1.0000  -7.5272   0.0000   0.0000   0.0000   0.2635
  12.600   1.4609   0.03300   0.02663  -0.0435  0.0355  1.0000  -7.5637   0.0000   0.0000   0.0000   0.2627
  12.700   1.4647   0.03351   0.02719  -0.0431  0.0346  1.0000  -7.6776   0.0000   0.0000   0.0000   0.2621
  12.800   1.4710   0.03382   0.02754  -0.0428  0.0337  1.0000  -7.8186   0.0000   0.0000   0.0000   0.2617
  12.900   1.4757   0.03426   0.02803  -0.0425  0.0326  1.0000  -7.9441   0.0000   0.0000   0.0000   0.2611
  13.000   1.4794   0.03479   0.02859  -0.0421  0.0313  1.0000  -8.0615   0.0000   0.0000   0.0000   0.2606
  13.100   1.4825   0.03538   0.02922  -0.0417  0.0299  1.0000  -8.1727   0.0000   0.0000   0.0000   0.2601
  13.200   1.4843   0.03610   0.02995  -0.0413  0.0285  1.0000  -8.2718   0.0000   0.0000   0.0000   0.2596
  13.300   1.4847   0.03696   0.03081  -0.0409  0.0271  1.0000  -8.3571   0.0000   0.0000   0.0000   0.2591
  13.400   1.4836   0.03799   0.03184  -0.0404  0.0257  1.0000  -8.4256   0.0000   0.0000   0.0000   0.2586
  13.500   1.4803   0.03926   0.03314  -0.0399  0.0242  1.0000  -8.4667   0.0000   0.0000   0.0000   0.2582
  13.600   1.4745   0.04082   0.03476  -0.0394  0.0230  1.0000  -8.4785   0.0000   0.0000   0.0000   0.2577
  13.700   1.4792   0.04134   0.03532  -0.0392  0.0221  1.0000  -8.6021   0.0000   0.0000   0.0000   0.2573
  13.800   1.4827   0.04200   0.03603  -0.0390  0.0210  1.0000  -8.7101   0.0000   0.0000   0.0000   0.2569
  13.900   1.4845   0.04284   0.03691  -0.0388  0.0195  1.0000  -8.7997   0.0000   0.0000   0.0000   0.2566
  14.000   1.4839   0.04394   0.03803  -0.0387  0.0181  1.0000  -8.8658   0.0000   0.0000   0.0000   0.2563
  14.100   1.4812   0.04532   0.03939  -0.0385  0.0167  1.0000  -8.9083   0.0000   0.0000   0.0000   0.2560
  14.200   1.4750   0.04712   0.04122  -0.0384  0.0154  1.0000  -8.9083   0.0000   0.0000   0.0000   0.2559
  14.300   1.4648   0.04947   0.04364  -0.0385  0.0144  1.0000  -8.8574   0.0000   0.0000   0.0000   0.2558
  14.400   1.4646   0.05068   0.04490  -0.0385  0.0136  1.0000  -8.9122   0.0000   0.0000   0.0000   0.2556
  14.500   1.4631   0.05207   0.04634  -0.0386  0.0128  1.0000  -8.9543   0.0000   0.0000   0.0000   0.2555
  14.600   1.4609   0.05359   0.04791  -0.0387  0.0121  1.0000  -8.9897   0.0000   0.0000   0.0000   0.2555
  14.700   1.4582   0.05519   0.04957  -0.0390  0.0115  1.0000  -9.0233   0.0000   0.0000   0.0000   0.2555
  14.800   1.4550   0.05689   0.05130  -0.0393  0.0110  1.0000  -9.0533   0.0000   0.0000   0.0000   0.2555
  14.900   1.4511   0.05873   0.05318  -0.0397  0.0106  1.0000  -9.0750   0.0000   0.0000   0.0000   0.2557
  15.000   1.4466   0.06067   0.05517  -0.0402  0.0102  1.0000  -9.0897   0.0000   0.0000   0.0000   0.2559


