xflr5 v6.61

 Calculated polar for: SD7032-099-88

 1 1 Reynolds number fixed          Mach number fixed         

 xtrf =   1.000 (top)        1.000 (bottom)
 Mach =   0.000     Re =     0.175 e 6     Ncrit =   9.000

  alpha     CL        CD       CDp       Cm    Top Xtr Bot Xtr   Cpmin    Chinge    XCp    
 ------- -------- --------- --------- -------- ------- ------- -------- --------- ---------
 -10.000  -0.3205   0.11528   0.11143  -0.0384  1.0000  0.0406  -1.6077   0.0000   0.0000   0.0000   0.1210
  -9.900  -0.3197   0.11428   0.11044  -0.0388  1.0000  0.0407  -1.6113   0.0000   0.0000   0.0000   0.1196
  -9.800  -0.3190   0.11325   0.10943  -0.0391  1.0000  0.0408  -1.6148   0.0000   0.0000   0.0000   0.1184
  -9.700  -0.3184   0.11220   0.10840  -0.0395  1.0000  0.0408  -1.6185   0.0000   0.0000   0.0000   0.1172
  -9.600  -0.3179   0.11114   0.10736  -0.0398  1.0000  0.0409  -1.6222   0.0000   0.0000   0.0000   0.1162
  -9.500  -0.3175   0.11007   0.10631  -0.0401  1.0000  0.0409  -1.6261   0.0000   0.0000   0.0000   0.1152
  -9.400  -0.3173   0.10899   0.10525  -0.0403  1.0000  0.0410  -1.6303   0.0000   0.0000   0.0000   0.1145
  -9.300  -0.3172   0.10792   0.10420  -0.0405  1.0000  0.0410  -1.6347   0.0000   0.0000   0.0000   0.1139
  -9.200  -0.3174   0.10685   0.10316  -0.0407  1.0000  0.0410  -1.6395   0.0000   0.0000   0.0000   0.1136
  -9.100  -0.3179   0.10580   0.10213  -0.0408  1.0000  0.0410  -1.6446   0.0000   0.0000   0.0000   0.1136
  -9.000  -0.3186   0.10477   0.10112  -0.0408  1.0000  0.0411  -1.6503   0.0000   0.0000   0.0000   0.1138
  -8.900  -0.3197   0.10375   0.10013  -0.0408  1.0000  0.0411  -1.6586   0.0000   0.0000   0.0000   0.1144
  -8.700  -0.3313   0.09799   0.09446  -0.0408  1.0000  0.0420  -1.7653   0.0000   0.0000   0.0000   0.1194
  -8.600  -0.3326   0.09608   0.09257  -0.0400  1.0000  0.0425  -1.7626   0.0000   0.0000   0.0000   0.1222
  -8.500  -0.3311   0.09476   0.09126  -0.0390  1.0000  0.0429  -1.7336   0.0000   0.0000   0.0000   0.1249
  -8.400  -0.3307   0.09372   0.09023  -0.0381  1.0000  0.0433  -1.7117   0.0000   0.0000   0.0000   0.1276
  -8.300  -0.3304   0.09280   0.08934  -0.0372  1.0000  0.0437  -1.6909   0.0000   0.0000   0.0000   0.1303
  -8.200  -0.3307   0.09197   0.08852  -0.0363  1.0000  0.0440  -1.6737   0.0000   0.0000   0.0000   0.1333
  -8.100  -0.3318   0.09119   0.08777  -0.0354  1.0000  0.0443  -1.6615   0.0000   0.0000   0.0000   0.1365
  -8.000  -0.3333   0.09045   0.08705  -0.0345  1.0000  0.0446  -1.6519   0.0000   0.0000   0.0000   0.1399
  -7.900  -0.3356   0.08976   0.08638  -0.0336  1.0000  0.0449  -1.6459   0.0000   0.0000   0.0000   0.1435
  -7.800  -0.3385   0.08909   0.08574  -0.0326  1.0000  0.0452  -1.6429   0.0000   0.0000   0.0000   0.1473
  -7.700  -0.3419   0.08845   0.08513  -0.0316  1.0000  0.0455  -1.6424   0.0000   0.0000   0.0000   0.1513
  -7.600  -0.3459   0.08784   0.08455  -0.0306  1.0000  0.0457  -1.6439   0.0000   0.0000   0.0000   0.1555
  -7.500  -0.3504   0.08726   0.08399  -0.0296  1.0000  0.0460  -1.6473   0.0000   0.0000   0.0000   0.1598
  -7.400  -0.3555   0.08671   0.08344  -0.0285  1.0000  0.0462  -1.6527   0.0000   0.0000   0.0000   0.1643
  -7.300  -0.3613   0.08619   0.08295  -0.0274  1.0000  0.0464  -1.6599   0.0000   0.0000   0.0000   0.1689
  -7.200  -0.3676   0.08570   0.08250  -0.0262  1.0000  0.0465  -1.6688   0.0000   0.0000   0.0000   0.1736
  -7.100  -0.3747   0.08525   0.08208  -0.0249  1.0000  0.0466  -1.6794   0.0000   0.0000   0.0000   0.1785
  -7.000  -0.3822   0.08482   0.08168  -0.0236  1.0000  0.0467  -1.6915   0.0000   0.0000   0.0000   0.1834
  -6.900  -0.3895   0.08433   0.08122  -0.0225  1.0000  0.0468  -1.7035   0.0000   0.0000   0.0000   0.1876
  -6.800  -0.3950   0.08368   0.08060  -0.0218  1.0000  0.0470  -1.7128   0.0000   0.0000   0.0000   0.1905
  -6.700  -0.3995   0.08291   0.07986  -0.0213  1.0000  0.0472  -1.7209   0.0000   0.0000   0.0000   0.1924
  -6.600  -0.4037   0.08210   0.07907  -0.0210  1.0000  0.0475  -1.7292   0.0000   0.0000   0.0000   0.1939
  -6.500  -0.4035   0.08093   0.07791  -0.0217  0.9994  0.0479  -1.7323   0.0000   0.0000   0.0000   0.1921
  -6.400  -0.3929   0.07887   0.07585  -0.0251  0.9970  0.0490  -1.7259   0.0000   0.0000   0.0000   0.1820
  -6.300  -0.3816   0.07666   0.07363  -0.0290  0.9943  0.0501  -1.7254   0.0000   0.0000   0.0000   0.1699
  -6.200  -0.3692   0.07426   0.07121  -0.0335  0.9918  0.0514  -1.7312   0.0000   0.0000   0.0000   0.1551
  -6.100  -0.3569   0.07179   0.06871  -0.0382  0.9894  0.0528  -1.7452   0.0000   0.0000   0.0000   0.1387
  -6.000  -0.3470   0.06940   0.06629  -0.0424  0.9859  0.0543  -1.7688   0.0000   0.0000   0.0000   0.1236
  -5.900  -0.3332   0.06657   0.06340  -0.0484  0.9821  0.0564  -1.8169   0.0000   0.0000   0.0000   0.1004
  -5.800  -0.3062   0.06463   0.06118  -0.0579  0.9777  0.0595  -1.9134   0.0000   0.0000   0.0000   0.0561
  -5.700  -0.2913   0.06278   0.05919  -0.0616  0.9753  0.0598  -1.9338   0.0000   0.0000   0.0000   0.0336
  -5.600  -0.2769   0.06079   0.05706  -0.0648  0.9733  0.0600  -1.9481   0.0000   0.0000   0.0000   0.0106
  -5.500  -0.2769   0.05319   0.04943  -0.0696  0.9717  0.0620  -2.0584   0.0000   0.0000   0.0000  -0.0065
  -5.400  -0.2655   0.05137   0.04765  -0.0708  0.9706  0.0632  -2.0064   0.0000   0.0000   0.0000  -0.0221
  -5.300  -0.2610   0.05035   0.04665  -0.0703  0.9667  0.0639  -1.9724   0.0000   0.0000   0.0000  -0.0248
  -5.200  -0.2529   0.04925   0.04556  -0.0707  0.9635  0.0649  -1.9339   0.0000   0.0000   0.0000  -0.0349
  -5.100  -0.2426   0.04807   0.04436  -0.0716  0.9607  0.0662  -1.8973   0.0000   0.0000   0.0000  -0.0508
  -5.000  -0.2304   0.04680   0.04305  -0.0730  0.9582  0.0679  -1.8651   0.0000   0.0000   0.0000  -0.0722
  -4.900  -0.2167   0.04534   0.04153  -0.0748  0.9560  0.0700  -1.8427   0.0000   0.0000   0.0000  -0.1010
  -4.800  -0.2012   0.04369   0.03977  -0.0770  0.9541  0.0727  -1.8331   0.0000   0.0000   0.0000  -0.1389
  -4.700  -0.1838   0.04198   0.03787  -0.0796  0.9524  0.0762  -1.8410   0.0000   0.0000   0.0000  -0.1898
  -4.600  -0.1649   0.03944   0.03483  -0.0836  0.9505  0.0843  -1.9033   0.0000   0.0000   0.0000  -0.2648
  -4.500  -0.1508   0.03757   0.03299  -0.0851  0.9495  0.0857  -1.8728   0.0000   0.0000   0.0000  -0.3226
  -4.300  -0.1167   0.02757   0.02179  -0.0866  0.9467  0.0361  -2.5163   0.0000   0.0000   0.0000  -0.5043
  -4.200  -0.1103   0.02644   0.02049  -0.0858  0.9420  0.0357  -2.5458   0.0000   0.0000   0.0000  -0.5406
  -4.100  -0.0977   0.02521   0.01903  -0.0861  0.9391  0.0356  -2.5708   0.0000   0.0000   0.0000  -0.6456
  -4.000  -0.0833   0.02412   0.01774  -0.0867  0.9367  0.0361  -2.5811   0.0000   0.0000   0.0000  -0.8066
  -3.900  -0.0678   0.02335   0.01681  -0.0874  0.9347  0.0374  -2.5593   0.0000   0.0000   0.0000  -1.0576
  -3.800  -0.0508   0.02365   0.01703  -0.0882  0.9326  0.0404  -2.4642   0.0000   0.0000   0.0000  -1.5111
  -3.700  -0.0352   0.02209   0.01521  -0.0893  0.9312  0.0426  -2.4650   0.0000   0.0000   0.0000  -2.3206
  -3.600  -0.0189   0.02084   0.01381  -0.0903  0.9300  0.0437  -2.4489   0.0000   0.0000   0.0000  -4.5978
  -3.500  -0.0018   0.01989   0.01273  -0.0913  0.9288  0.0449  -2.4155   0.0000   0.0000   0.0000  -50.9536
  -3.400   0.0158   0.01917   0.01196  -0.0924  0.9278  0.0466  -2.3572   0.0000   0.0000   0.0000   6.1615
  -3.300   0.0340   0.01860   0.01135  -0.0936  0.9268  0.0489  -2.2869   0.0000   0.0000   0.0000   3.0413
  -3.200   0.0523   0.01811   0.01082  -0.0949  0.9259  0.0517  -2.2096   0.0000   0.0000   0.0000   2.0840
  -3.100   0.0709   0.01788   0.01056  -0.0962  0.9249  0.0566  -2.1078   0.0000   0.0000   0.0000   1.6215
  -3.000   0.0730   0.01781   0.01047  -0.0944  0.9182  0.0582  -2.0661   0.0000   0.0000   0.0000   1.5566
  -2.900   0.0858   0.01758   0.01018  -0.0945  0.9148  0.0599  -1.9949   0.0000   0.0000   0.0000   1.3629
  -2.800   0.0993   0.01666   0.00925  -0.0948  0.9124  0.0634  -1.9513   0.0000   0.0000   0.0000   1.2148
  -2.700   0.1142   0.01614   0.00875  -0.0955  0.9102  0.0679  -1.8754   0.0000   0.0000   0.0000   1.0945
  -2.600   0.1300   0.01579   0.00840  -0.0963  0.9082  0.0733  -1.7881   0.0000   0.0000   0.0000   0.9972
  -2.500   0.1464   0.01554   0.00811  -0.0971  0.9065  0.0809  -1.6943   0.0000   0.0000   0.0000   0.9187
  -2.400   0.1626   0.01497   0.00763  -0.0980  0.9048  0.0991  -1.6168   0.0000   0.0000   0.0000   0.8576
  -2.300   0.1778   0.01404   0.00718  -0.0989  0.9033  0.1988  -1.5569   0.0000   0.0000   0.0000   0.8106
  -2.200   0.1927   0.01345   0.00702  -0.0999  0.9019  0.3088  -1.4605   0.0000   0.0000   0.0000   0.7719
  -2.100   0.2011   0.01319   0.00697  -0.0994  0.8976  0.3763  -1.3975   0.0000   0.0000   0.0000   0.7476
  -2.000   0.2085   0.01296   0.00695  -0.0987  0.8924  0.4380  -1.3420   0.0000   0.0000   0.0000   0.7263
  -1.900   0.2195   0.01268   0.00690  -0.0985  0.8888  0.5059  -1.2749   0.0000   0.0000   0.0000   0.7015
  -1.800   0.2309   0.01238   0.00686  -0.0983  0.8859  0.5817  -1.2060   0.0000   0.0000   0.0000   0.6780
  -1.700   0.2418   0.01210   0.00682  -0.0978  0.8833  0.6549  -1.1383   0.0000   0.0000   0.0000   0.6563
  -1.600   0.2521   0.01186   0.00679  -0.0970  0.8810  0.7192  -1.0730   0.0000   0.0000   0.0000   0.6364
  -1.500   0.2622   0.01166   0.00672  -0.0961  0.8789  0.7719  -1.0088   0.0000   0.0000   0.0000   0.6178
  -1.400   0.2714   0.01152   0.00666  -0.0950  0.8763  0.8118  -0.9485   0.0000   0.0000   0.0000   0.6014
  -1.300   0.2748   0.01149   0.00668  -0.0931  0.8697  0.8402  -0.9063   0.0000   0.0000   0.0000   0.5899
  -1.200   0.2832   0.01138   0.00659  -0.0920  0.8654  0.8697  -0.8500   0.0000   0.0000   0.0000   0.5759
  -1.100   0.2945   0.01123   0.00645  -0.0915  0.8622  0.9021  -0.7859   0.0000   0.0000   0.0000   0.5613
  -1.000   0.3142   0.01105   0.00625  -0.0926  0.8600  0.9414  -0.6989   0.0000   0.0000   0.0000   0.5453
  -0.900   0.3434   0.01083   0.00597  -0.0959  0.8585  0.9852  -0.6029   0.0000   0.0000   0.0000   0.5296
  -0.800   0.3609   0.01071   0.00576  -0.0970  0.8559  1.0000  -0.6114   0.0000   0.0000   0.0000   0.5189
  -0.700   0.3730   0.01065   0.00562  -0.0971  0.8528  1.0000  -0.6222   0.0000   0.0000   0.0000   0.5102
  -0.600   0.3800   0.01068   0.00562  -0.0964  0.8461  1.0000  -0.6298   0.0000   0.0000   0.0000   0.5034
  -0.500   0.3904   0.01065   0.00552  -0.0961  0.8412  1.0000  -0.6395   0.0000   0.0000   0.0000   0.4959
  -0.400   0.4020   0.01059   0.00540  -0.0961  0.8371  1.0000  -0.6501   0.0000   0.0000   0.0000   0.4885
  -0.300   0.4143   0.01051   0.00525  -0.0961  0.8336  1.0000  -0.6612   0.0000   0.0000   0.0000   0.4813
  -0.200   0.4268   0.01044   0.00510  -0.0961  0.8306  1.0000  -0.6725   0.0000   0.0000   0.0000   0.4744
  -0.100   0.4356   0.01047   0.00510  -0.0957  0.8243  1.0000  -0.6818   0.0000   0.0000   0.0000   0.4687
   0.000   0.4458   0.01045   0.00504  -0.0954  0.8187  1.0000  -0.6924   0.0000   0.0000   0.0000   0.4630
   0.100   0.4571   0.01041   0.00494  -0.0952  0.8141  1.0000  -0.7038   0.0000   0.0000   0.0000   0.4573
   0.200   0.4689   0.01035   0.00482  -0.0951  0.8101  1.0000  -0.7157   0.0000   0.0000   0.0000   0.4517
   0.300   0.4812   0.01030   0.00469  -0.0951  0.8066  1.0000  -0.7279   0.0000   0.0000   0.0000   0.4463
   0.400   0.4902   0.01034   0.00471  -0.0947  0.7997  1.0000  -0.7377   0.0000   0.0000   0.0000   0.4418
   0.500   0.5008   0.01033   0.00466  -0.0945  0.7938  1.0000  -0.7490   0.0000   0.0000   0.0000   0.4372
   0.600   0.5120   0.01030   0.00457  -0.0943  0.7889  1.0000  -0.7616   0.0000   0.0000   0.0000   0.4326
   0.700   0.5239   0.01026   0.00447  -0.0942  0.7847  1.0000  -0.7747   0.0000   0.0000   0.0000   0.4281
   0.800   0.5344   0.01028   0.00445  -0.0940  0.7789  1.0000  -0.7867   0.0000   0.0000   0.0000   0.4241
   0.900   0.5445   0.01030   0.00444  -0.0938  0.7722  1.0000  -0.7989   0.0000   0.0000   0.0000   0.4202
   1.000   0.5555   0.01029   0.00438  -0.0936  0.7666  1.0000  -0.8125   0.0000   0.0000   0.0000   0.4164
   1.100   0.5671   0.01027   0.00430  -0.0934  0.7618  1.0000  -0.8269   0.0000   0.0000   0.0000   0.4126
   1.200   0.5779   0.01029   0.00428  -0.0933  0.7560  1.0000  -0.8405   0.0000   0.0000   0.0000   0.4092
   1.300   0.5880   0.01032   0.00429  -0.0930  0.7490  1.0000  -0.8535   0.0000   0.0000   0.0000   0.4059
   1.400   0.5988   0.01033   0.00426  -0.0928  0.7429  1.0000  -0.8673   0.0000   0.0000   0.0000   0.4026
   1.500   0.6103   0.01034   0.00419  -0.0927  0.7377  1.0000  -0.8817   0.0000   0.0000   0.0000   0.3993
   1.600   0.6208   0.01038   0.00421  -0.0925  0.7311  1.0000  -0.8958   0.0000   0.0000   0.0000   0.3964
   1.700   0.6311   0.01041   0.00423  -0.0923  0.7239  1.0000  -0.9106   0.0000   0.0000   0.0000   0.3935
   1.800   0.6420   0.01043   0.00419  -0.0921  0.7177  1.0000  -0.9261   0.0000   0.0000   0.0000   0.3906
   1.900   0.6535   0.01047   0.00414  -0.0920  0.7125  1.0000  -0.9422   0.0000   0.0000   0.0000   0.3878
   2.000   0.6635   0.01052   0.00420  -0.0917  0.7049  1.0000  -0.9568   0.0000   0.0000   0.0000   0.3853
   2.100   0.6740   0.01056   0.00421  -0.0915  0.6978  1.0000  -0.9719   0.0000   0.0000   0.0000   0.3827
   2.200   0.6850   0.01060   0.00418  -0.0913  0.6916  1.0000  -0.9878   0.0000   0.0000   0.0000   0.3802
   2.300   0.6956   0.01066   0.00420  -0.0912  0.6848  1.0000  -1.0032   0.0000   0.0000   0.0000   0.3778
   2.400   0.7058   0.01071   0.00424  -0.0909  0.6771  1.0000  -1.0182   0.0000   0.0000   0.0000   0.3755
   2.500   0.7165   0.01077   0.00423  -0.0907  0.6702  1.0000  -1.0339   0.0000   0.0000   0.0000   0.3732
   2.600   0.7274   0.01084   0.00423  -0.0906  0.6639  1.0000  -1.0498   0.0000   0.0000   0.0000   0.3709
   2.700   0.7375   0.01090   0.00430  -0.0903  0.6558  1.0000  -1.0648   0.0000   0.0000   0.0000   0.3689
   2.800   0.7479   0.01096   0.00432  -0.0901  0.6485  1.0000  -1.0821   0.0000   0.0000   0.0000   0.3668
   2.900   0.7588   0.01104   0.00431  -0.0900  0.6421  1.0000  -1.1001   0.0000   0.0000   0.0000   0.3647
   3.000   0.7688   0.01111   0.00439  -0.0897  0.6340  1.0000  -1.1170   0.0000   0.0000   0.0000   0.3628
   3.100   0.7791   0.01118   0.00446  -0.0895  0.6262  1.0000  -1.1344   0.0000   0.0000   0.0000   0.3608
   3.200   0.7897   0.01127   0.00447  -0.0893  0.6194  1.0000  -1.1522   0.0000   0.0000   0.0000   0.3589
   3.300   0.7998   0.01135   0.00454  -0.0891  0.6116  1.0000  -1.1695   0.0000   0.0000   0.0000   0.3571
   3.400   0.8100   0.01143   0.00460  -0.0889  0.6037  1.0000  -1.1868   0.0000   0.0000   0.0000   0.3554
   3.500   0.8204   0.01153   0.00462  -0.0886  0.5967  1.0000  -1.2047   0.0000   0.0000   0.0000   0.3536
   3.600   0.8306   0.01162   0.00469  -0.0884  0.5892  1.0000  -1.2222   0.0000   0.0000   0.0000   0.3519
   3.700   0.8407   0.01170   0.00477  -0.0882  0.5813  1.0000  -1.2396   0.0000   0.0000   0.0000   0.3503
   3.800   0.8510   0.01181   0.00481  -0.0880  0.5741  1.0000  -1.2589   0.0000   0.0000   0.0000   0.3486
   3.900   0.8612   0.01192   0.00488  -0.0878  0.5671  1.0000  -1.2790   0.0000   0.0000   0.0000   0.3471
   4.000   0.8712   0.01200   0.00497  -0.0876  0.5590  1.0000  -1.2988   0.0000   0.0000   0.0000   0.3456
   4.100   0.8813   0.01211   0.00503  -0.0873  0.5516  1.0000  -1.3190   0.0000   0.0000   0.0000   0.3440
   4.200   0.8914   0.01224   0.00510  -0.0871  0.5446  1.0000  -1.3394   0.0000   0.0000   0.0000   0.3425
   4.300   0.9013   0.01233   0.00520  -0.0869  0.5364  1.0000  -1.3593   0.0000   0.0000   0.0000   0.3411
   4.400   0.9113   0.01244   0.00528  -0.0866  0.5289  1.0000  -1.3813   0.0000   0.0000   0.0000   0.3397
   4.500   0.9214   0.01260   0.00534  -0.0864  0.5224  1.0000  -1.4051   0.0000   0.0000   0.0000   0.3383
   4.600   0.9313   0.01268   0.00553  -0.0862  0.5146  1.0000  -1.4282   0.0000   0.0000   0.0000   0.3369
   4.700   0.9412   0.01280   0.00562  -0.0860  0.5073  1.0000  -1.4517   0.0000   0.0000   0.0000   0.3356
   4.800   0.9512   0.01295   0.00570  -0.0857  0.5007  1.0000  -1.4755   0.0000   0.0000   0.0000   0.3343
   4.900   0.9610   0.01307   0.00583  -0.0855  0.4933  1.0000  -1.4999   0.0000   0.0000   0.0000   0.3330
   5.000   0.9708   0.01318   0.00594  -0.0852  0.4856  1.0000  -1.5277   0.0000   0.0000   0.0000   0.3318
   5.100   0.9805   0.01333   0.00603  -0.0850  0.4785  1.0000  -1.5557   0.0000   0.0000   0.0000   0.3305
   5.200   0.9903   0.01347   0.00615  -0.0847  0.4713  1.0000  -1.5850   0.0000   0.0000   0.0000   0.3293
   5.300   0.9999   0.01358   0.00628  -0.0845  0.4635  1.0000  -1.6181   0.0000   0.0000   0.0000   0.3281
   5.400   1.0095   0.01373   0.00638  -0.0842  0.4564  1.0000  -1.6515   0.0000   0.0000   0.0000   0.3269
   5.500   1.0192   0.01390   0.00651  -0.0839  0.4499  1.0000  -1.6852   0.0000   0.0000   0.0000   0.3257
   5.600   1.0289   0.01401   0.00666  -0.0837  0.4426  1.0000  -1.7188   0.0000   0.0000   0.0000   0.3246
   5.700   1.0384   0.01415   0.00678  -0.0834  0.4356  1.0000  -1.7526   0.0000   0.0000   0.0000   0.3235
   5.800   1.0479   0.01435   0.00690  -0.0831  0.4292  1.0000  -1.7866   0.0000   0.0000   0.0000   0.3224
   5.900   1.0574   0.01448   0.00707  -0.0829  0.4219  1.0000  -1.8205   0.0000   0.0000   0.0000   0.3213
   6.000   1.0667   0.01461   0.00725  -0.0826  0.4144  1.0000  -1.8545   0.0000   0.0000   0.0000   0.3202
   6.100   1.0759   0.01479   0.00737  -0.0823  0.4076  1.0000  -1.8900   0.0000   0.0000   0.0000   0.3191
   6.200   1.0853   0.01497   0.00754  -0.0820  0.4008  1.0000  -1.9305   0.0000   0.0000   0.0000   0.3181
   6.300   1.0946   0.01509   0.00770  -0.0817  0.3934  1.0000  -1.9710   0.0000   0.0000   0.0000   0.3170
   6.400   1.1037   0.01526   0.00784  -0.0813  0.3865  1.0000  -2.0117   0.0000   0.0000   0.0000   0.3160
   6.500   1.1127   0.01550   0.00800  -0.0810  0.3801  1.0000  -2.0527   0.0000   0.0000   0.0000   0.3150
   6.600   1.1219   0.01561   0.00818  -0.0807  0.3728  1.0000  -2.0936   0.0000   0.0000   0.0000   0.3140
   6.700   1.1309   0.01576   0.00833  -0.0804  0.3656  1.0000  -2.1347   0.0000   0.0000   0.0000   0.3130
   6.800   1.1396   0.01600   0.00849  -0.0800  0.3590  1.0000  -2.1757   0.0000   0.0000   0.0000   0.3120
   6.900   1.1486   0.01616   0.00869  -0.0797  0.3522  1.0000  -2.2172   0.0000   0.0000   0.0000   0.3110
   7.000   1.1575   0.01630   0.00886  -0.0793  0.3449  1.0000  -2.2607   0.0000   0.0000   0.0000   0.3100
   7.100   1.1660   0.01651   0.00903  -0.0789  0.3383  1.0000  -2.3088   0.0000   0.0000   0.0000   0.3091
   7.200   1.1746   0.01675   0.00923  -0.0785  0.3318  1.0000  -2.3571   0.0000   0.0000   0.0000   0.3081
   7.300   1.1834   0.01688   0.00942  -0.0782  0.3246  1.0000  -2.4061   0.0000   0.0000   0.0000   0.3072
   7.400   1.1917   0.01706   0.00960  -0.0777  0.3175  1.0000  -2.4545   0.0000   0.0000   0.0000   0.3062
   7.500   1.1996   0.01735   0.00983  -0.0773  0.3109  1.0000  -2.5025   0.0000   0.0000   0.0000   0.3053
   7.600   1.2083   0.01748   0.01004  -0.0769  0.3039  1.0000  -2.5572   0.0000   0.0000   0.0000   0.3044
   7.700   1.2165   0.01765   0.01024  -0.0765  0.2968  1.0000  -2.6133   0.0000   0.0000   0.0000   0.3035
   7.800   1.2242   0.01790   0.01043  -0.0760  0.2902  1.0000  -2.6685   0.0000   0.0000   0.0000   0.3025
   7.900   1.2323   0.01813   0.01066  -0.0755  0.2837  1.0000  -2.7246   0.0000   0.0000   0.0000   0.3016
   8.000   1.2405   0.01829   0.01088  -0.0751  0.2767  1.0000  -2.7995   0.0000   0.0000   0.0000   0.3007
   8.100   1.2481   0.01851   0.01108  -0.0746  0.2702  1.0000  -2.8869   0.0000   0.0000   0.0000   0.2998
   8.200   1.2553   0.01884   0.01133  -0.0741  0.2641  1.0000  -2.9731   0.0000   0.0000   0.0000   0.2989
   8.300   1.2637   0.01900   0.01158  -0.0736  0.2581  1.0000  -3.0652   0.0000   0.0000   0.0000   0.2980
   8.400   1.2716   0.01920   0.01182  -0.0732  0.2518  1.0000  -3.1562   0.0000   0.0000   0.0000   0.2972
   8.500   1.2786   0.01946   0.01205  -0.0726  0.2457  1.0000  -3.2445   0.0000   0.0000   0.0000   0.2963
   8.600   1.2854   0.01980   0.01233  -0.0720  0.2397  1.0000  -3.3323   0.0000   0.0000   0.0000   0.2954
   8.700   1.2933   0.01995   0.01258  -0.0715  0.2333  1.0000  -3.4260   0.0000   0.0000   0.0000   0.2945
   8.800   1.3002   0.02017   0.01281  -0.0709  0.2267  1.0000  -3.5165   0.0000   0.0000   0.0000   0.2936
   8.900   1.3061   0.02049   0.01307  -0.0702  0.2206  1.0000  -3.6085   0.0000   0.0000   0.0000   0.2927
   9.000   1.3129   0.02076   0.01336  -0.0696  0.2144  1.0000  -3.7148   0.0000   0.0000   0.0000   0.2918
   9.100   1.3201   0.02095   0.01363  -0.0691  0.2079  1.0000  -3.8245   0.0000   0.0000   0.0000   0.2909
   9.200   1.3259   0.02124   0.01389  -0.0683  0.2016  1.0000  -3.9279   0.0000   0.0000   0.0000   0.2900
   9.300   1.3306   0.02166   0.01423  -0.0675  0.1958  1.0000  -4.0245   0.0000   0.0000   0.0000   0.2890
   9.400   1.3377   0.02187   0.01458  -0.0669  0.1900  1.0000  -4.1311   0.0000   0.0000   0.0000   0.2882
   9.500   1.3438   0.02212   0.01488  -0.0662  0.1837  1.0000  -4.2354   0.0000   0.0000   0.0000   0.2873
   9.600   1.3482   0.02248   0.01520  -0.0653  0.1777  1.0000  -4.3319   0.0000   0.0000   0.0000   0.2863
   9.700   1.3520   0.02293   0.01560  -0.0643  0.1718  1.0000  -4.4241   0.0000   0.0000   0.0000   0.2853
   9.800   1.3578   0.02314   0.01591  -0.0635  0.1656  1.0000  -4.5304   0.0000   0.0000   0.0000   0.2844
   9.900   1.3615   0.02345   0.01623  -0.0625  0.1594  1.0000  -4.6246   0.0000   0.0000   0.0000   0.2833
  10.000   1.3631   0.02390   0.01661  -0.0612  0.1537  1.0000  -4.7057   0.0000   0.0000   0.0000   0.2822
  10.100   1.3664   0.02432   0.01704  -0.0601  0.1478  1.0000  -4.7963   0.0000   0.0000   0.0000   0.2811
  10.200   1.3708   0.02461   0.01740  -0.0592  0.1416  1.0000  -4.8958   0.0000   0.0000   0.0000   0.2802
  10.300   1.3730   0.02503   0.01779  -0.0581  0.1358  1.0000  -4.9818   0.0000   0.0000   0.0000   0.2791
  10.400   1.3730   0.02565   0.01833  -0.0567  0.1304  1.0000  -5.0518   0.0000   0.0000   0.0000   0.2780
  10.500   1.3770   0.02605   0.01879  -0.0558  0.1251  1.0000  -5.1470   0.0000   0.0000   0.0000   0.2770
  10.600   1.3807   0.02644   0.01923  -0.0549  0.1198  1.0000  -5.2422   0.0000   0.0000   0.0000   0.2761
  10.700   1.3824   0.02694   0.01972  -0.0538  0.1150  1.0000  -5.3251   0.0000   0.0000   0.0000   0.2751
  10.800   1.3821   0.02763   0.02034  -0.0525  0.1106  1.0000  -5.3921   0.0000   0.0000   0.0000   0.2741
  10.900   1.3839   0.02827   0.02099  -0.0515  0.1063  1.0000  -5.4711   0.0000   0.0000   0.0000   0.2731
  11.000   1.3878   0.02869   0.02150  -0.0507  0.1023  1.0000  -5.5677   0.0000   0.0000   0.0000   0.2723
  11.100   1.3905   0.02918   0.02203  -0.0499  0.0983  1.0000  -5.6580   0.0000   0.0000   0.0000   0.2714
  11.200   1.3918   0.02977   0.02261  -0.0489  0.0948  1.0000  -5.7389   0.0000   0.0000   0.0000   0.2705
  11.300   1.3916   0.03052   0.02331  -0.0478  0.0915  1.0000  -5.8071   0.0000   0.0000   0.0000   0.2696
  11.400   1.3906   0.03155   0.02428  -0.0467  0.0876  1.0000  -5.8622   0.0000   0.0000   0.0000   0.2687
  11.500   1.3945   0.03198   0.02482  -0.0460  0.0854  1.0000  -5.9605   0.0000   0.0000   0.0000   0.2679
  11.600   1.3976   0.03252   0.02544  -0.0453  0.0828  1.0000  -6.0524   0.0000   0.0000   0.0000   0.2672
  11.700   1.3999   0.03312   0.02610  -0.0446  0.0803  1.0000  -6.1387   0.0000   0.0000   0.0000   0.2664
  11.800   1.4017   0.03378   0.02679  -0.0438  0.0780  1.0000  -6.2219   0.0000   0.0000   0.0000   0.2657
  11.900   1.4028   0.03449   0.02753  -0.0431  0.0758  1.0000  -6.3006   0.0000   0.0000   0.0000   0.2649
  12.000   1.4030   0.03532   0.02836  -0.0423  0.0737  1.0000  -6.3708   0.0000   0.0000   0.0000   0.2642
  12.100   1.4026   0.03632   0.02935  -0.0415  0.0714  1.0000  -6.4321   0.0000   0.0000   0.0000   0.2635
  12.200   1.4035   0.03769   0.03067  -0.0407  0.0684  1.0000  -6.4893   0.0000   0.0000   0.0000   0.2627
  12.300   1.4058   0.03830   0.03139  -0.0401  0.0674  1.0000  -6.5756   0.0000   0.0000   0.0000   0.2621
  12.400   1.4078   0.03898   0.03216  -0.0395  0.0661  1.0000  -6.6582   0.0000   0.0000   0.0000   0.2615
  12.500   1.4095   0.03971   0.03297  -0.0390  0.0645  1.0000  -6.7384   0.0000   0.0000   0.0000   0.2608
  12.600   1.4107   0.04046   0.03380  -0.0384  0.0627  1.0000  -6.8172   0.0000   0.0000   0.0000   0.2603
  12.700   1.4115   0.04125   0.03470  -0.0380  0.0608  1.0000  -6.8974   0.0000   0.0000   0.0000   0.2597
  12.800   1.4118   0.04206   0.03555  -0.0375  0.0590  1.0000  -6.9745   0.0000   0.0000   0.0000   0.2592
  12.900   1.4115   0.04294   0.03646  -0.0371  0.0573  1.0000  -7.0476   0.0000   0.0000   0.0000   0.2588
  13.000   1.4104   0.04395   0.03748  -0.0368  0.0555  1.0000  -7.1132   0.0000   0.0000   0.0000   0.2583
  13.100   1.4086   0.04516   0.03867  -0.0363  0.0536  1.0000  -7.1668   0.0000   0.0000   0.0000   0.2579
  13.200   1.4072   0.04696   0.04045  -0.0357  0.0506  1.0000  -7.1970   0.0000   0.0000   0.0000   0.2573
  13.300   1.4074   0.04771   0.04129  -0.0355  0.0498  1.0000  -7.2751   0.0000   0.0000   0.0000   0.2569
  13.400   1.4073   0.04858   0.04226  -0.0353  0.0488  1.0000  -7.3480   0.0000   0.0000   0.0000   0.2566
  13.500   1.4070   0.04954   0.04330  -0.0352  0.0475  1.0000  -7.4184   0.0000   0.0000   0.0000   0.2564
  13.600   1.4067   0.05055   0.04439  -0.0352  0.0460  1.0000  -7.4871   0.0000   0.0000   0.0000   0.2561
  13.700   1.4060   0.05164   0.04554  -0.0351  0.0445  1.0000  -7.5531   0.0000   0.0000   0.0000   0.2559
  13.800   1.4052   0.05278   0.04673  -0.0352  0.0430  1.0000  -7.6169   0.0000   0.0000   0.0000   0.2558
  13.900   1.4038   0.05401   0.04800  -0.0352  0.0418  1.0000  -7.6751   0.0000   0.0000   0.0000   0.2556
  14.000   1.4021   0.05532   0.04935  -0.0353  0.0406  1.0000  -7.7287   0.0000   0.0000   0.0000   0.2555
  14.100   1.3996   0.05677   0.05083  -0.0355  0.0395  1.0000  -7.7724   0.0000   0.0000   0.0000   0.2555
  14.200   1.3965   0.05835   0.05243  -0.0356  0.0383  1.0000  -7.8051   0.0000   0.0000   0.0000   0.2554
  14.300   1.3924   0.06014   0.05423  -0.0356  0.0370  1.0000  -7.8197   0.0000   0.0000   0.0000   0.2553
  14.400   1.3870   0.06246   0.05658  -0.0352  0.0350  1.0000  -7.7893   0.0000   0.0000   0.0000   0.2549
  14.500   1.3859   0.06380   0.05801  -0.0355  0.0345  1.0000  -7.8385   0.0000   0.0000   0.0000   0.2550
  14.600   1.3842   0.06528   0.05960  -0.0359  0.0338  1.0000  -7.8775   0.0000   0.0000   0.0000   0.2551
  14.700   1.3819   0.06691   0.06131  -0.0364  0.0329  1.0000  -7.9067   0.0000   0.0000   0.0000   0.2552
  14.800   1.3791   0.06864   0.06314  -0.0368  0.0319  1.0000  -7.9281   0.0000   0.0000   0.0000   0.2554
  14.900   1.3761   0.07044   0.06502  -0.0374  0.0308  1.0000  -7.9453   0.0000   0.0000   0.0000   0.2557
  15.000   1.3727   0.07232   0.06696  -0.0380  0.0298  1.0000  -7.9589   0.0000   0.0000   0.0000   0.2560


