xflr5 v6.61

 Calculated polar for: SD7032-099-88

 1 1 Reynolds number fixed          Mach number fixed         

 xtrf =   1.000 (top)        1.000 (bottom)
 Mach =   0.000     Re =     0.025 e 6     Ncrit =   9.000

  alpha     CL        CD       CDp       Cm    Top Xtr Bot Xtr   Cpmin    Chinge    XCp    
 ------- -------- --------- --------- -------- ------- ------- -------- --------- ---------
 -10.000  -0.3315   0.13351   0.12371  -0.0132  1.0000  0.4173  -1.1685   0.0000   0.0000   0.0000   0.2009
  -9.900  -0.3026   0.12648   0.11656  -0.0137  1.0000  0.4309  -1.1369   0.0000   0.0000   0.0000   0.1943
  -9.800  -0.3084   0.12715   0.11727  -0.0131  1.0000  0.4387  -1.1482   0.0000   0.0000   0.0000   0.1977
  -9.700  -0.3205   0.12904   0.11925  -0.0122  1.0000  0.4415  -1.1677   0.0000   0.0000   0.0000   0.2024
  -9.600  -0.2940   0.12282   0.11297  -0.0127  1.0000  0.4570  -1.1405   0.0000   0.0000   0.0000   0.1963
  -9.500  -0.3029   0.12404   0.11426  -0.0118  1.0000  0.4641  -1.1548   0.0000   0.0000   0.0000   0.2011
  -9.300  -0.2893   0.12001   0.11027  -0.0112  1.0000  0.4861  -1.1478   0.0000   0.0000   0.0000   0.2008
  -9.200  -0.3025   0.12198   0.11232  -0.0100  1.0000  0.4901  -1.1664   0.0000   0.0000   0.0000   0.2073
  -9.100  -0.2784   0.11660   0.10689  -0.0106  1.0000  0.5079  -1.1446   0.0000   0.0000   0.0000   0.2014
  -9.000  -0.2911   0.11847   0.10884  -0.0091  1.0000  0.5140  -1.1616   0.0000   0.0000   0.0000   0.2087
  -8.900  -0.2691   0.11355   0.10389  -0.0099  1.0000  0.5294  -1.1437   0.0000   0.0000   0.0000   0.2025
  -8.800  -0.2805   0.11516   0.10557  -0.0083  1.0000  0.5379  -1.1583   0.0000   0.0000   0.0000   0.2104
  -8.700  -0.2610   0.11076   0.10115  -0.0091  1.0000  0.5514  -1.1442   0.0000   0.0000   0.0000   0.2044
  -8.600  -0.2706   0.11206   0.10252  -0.0074  1.0000  0.5620  -1.1564   0.0000   0.0000   0.0000   0.2123
  -8.500  -0.2534   0.10808   0.09852  -0.0082  1.0000  0.5738  -1.1453   0.0000   0.0000   0.0000   0.2065
  -8.400  -0.2606   0.10898   0.09948  -0.0066  1.0000  0.5860  -1.1548   0.0000   0.0000   0.0000   0.2142
  -8.300  -0.2453   0.10539   0.09589  -0.0074  1.0000  0.5970  -1.1459   0.0000   0.0000   0.0000   0.2088
  -8.200  -0.2518   0.10619   0.09674  -0.0056  1.0000  0.6104  -1.1544   0.0000   0.0000   0.0000   0.2168
  -8.100  -0.2349   0.10245   0.09299  -0.0067  1.0000  0.6229  -1.1444   0.0000   0.0000   0.0000   0.2101
  -8.000  -0.2462   0.10405   0.09466  -0.0043  1.0000  0.6357  -1.1565   0.0000   0.0000   0.0000   0.2217
  -7.900  -0.2242   0.09958   0.09016  -0.0059  1.0000  0.6512  -1.1423   0.0000   0.0000   0.0000   0.2116
  -7.800  -0.2263   0.09922   0.08985  -0.0047  1.0000  0.6641  -1.1474   0.0000   0.0000   0.0000   0.2176
  -7.700  -0.2202   0.09797   0.08861  -0.0042  1.0000  0.6824  -1.1451   0.0000   0.0000   0.0000   0.2189
  -7.600  -0.2050   0.09477   0.08541  -0.0053  1.0000  0.6970  -1.1367   0.0000   0.0000   0.0000   0.2114
  -7.500  -0.2037   0.09398   0.08465  -0.0044  1.0000  0.7133  -1.1388   0.0000   0.0000   0.0000   0.2158
  -7.400  -0.2042   0.09399   0.08468  -0.0030  1.0000  0.7328  -1.1417   0.0000   0.0000   0.0000   0.2230
  -7.300  -0.1855   0.09047   0.08115  -0.0046  1.0000  0.7538  -1.1306   0.0000   0.0000   0.0000   0.2117
  -7.200  -0.1746   0.08848   0.07915  -0.0049  1.0000  0.7785  -1.1252   0.0000   0.0000   0.0000   0.2073
  -7.100  -0.1588   0.08570   0.07636  -0.0061  1.0000  0.8088  -1.1163   0.0000   0.0000   0.0000   0.1958
  -7.000  -0.1311   0.08175   0.07228  -0.0093  1.0000  0.8569  -1.0997   0.0000   0.0000   0.0000   0.1600
  -6.900  -0.0898   0.07613   0.06653  -0.0161  1.0000  0.9114  -1.0743   0.0000   0.0000   0.0000   0.0431
  -6.500   0.0094   0.06253   0.05266  -0.0369  1.0000  1.0000  -1.0223   0.0000   0.0000   0.0000   4.4236
  -6.400   0.0120   0.06171   0.05186  -0.0370  1.0000  1.0000  -1.0232   0.0000   0.0000   0.0000   3.5202
  -6.300   0.0075   0.06160   0.05182  -0.0352  1.0000  0.9957  -1.0286   0.0000   0.0000   0.0000   5.2328
  -6.200  -0.0026   0.06225   0.05254  -0.0322  1.0000  0.9884  -1.0387   0.0000   0.0000   0.0000  -13.0439
  -5.900  -0.0525   0.06551   0.05615  -0.0189  1.0000  0.9367  -1.0822   0.0000   0.0000   0.0000  -0.1499
  -5.800  -0.0781   0.06739   0.05819  -0.0132  1.0000  0.9073  -1.1048   0.0000   0.0000   0.0000   0.0548
  -5.700  -0.1066   0.06976   0.06073  -0.0075  1.0000  0.8784  -1.1307   0.0000   0.0000   0.0000   0.1616
  -5.600  -0.1337   0.07130   0.06244  -0.0031  1.0000  0.8337  -1.1576   0.0000   0.0000   0.0000   0.2128
  -5.500  -0.1615   0.07295   0.06425   0.0006  1.0000  0.7875  -1.1877   0.0000   0.0000   0.0000   0.2425
  -5.400  -0.1891   0.07443   0.06590   0.0035  1.0000  0.7406  -1.2201   0.0000   0.0000   0.0000   0.2592
  -5.300  -0.2176   0.07583   0.06746   0.0058  1.0000  0.6927  -1.2562   0.0000   0.0000   0.0000   0.2688
  -5.200  -0.2498   0.07779   0.06960   0.0088  1.0000  0.6584  -1.2947   0.0000   0.0000   0.0000   0.2788
  -5.000  -0.3149   0.07964   0.07187   0.0101  1.0000  0.5452  -1.3944   0.0000   0.0000   0.0000   0.2777
  -4.900  -0.3459   0.08143   0.07382   0.0133  1.0000  0.5389  -1.4295   0.0000   0.0000   0.0000   0.2845
  -4.600  -0.3791   0.07641   0.06895  -0.0019  1.0000  0.3782  -1.6036   0.0000   0.0000   0.0000   0.2419
  -4.500  -0.3829   0.07430   0.06678  -0.0094  1.0000  0.3407  -1.6775   0.0000   0.0000   0.0000   0.2226
  -4.400  -0.3787   0.07185   0.06427  -0.0141  1.0000  0.3157  -1.7237   0.0000   0.0000   0.0000   0.2100
  -4.300  -0.3724   0.06923   0.06151  -0.0200  1.0000  0.2932  -1.7804   0.0000   0.0000   0.0000   0.1935
  -4.200  -0.3671   0.06744   0.05974  -0.0199  1.0000  0.2853  -1.7828   0.0000   0.0000   0.0000   0.1931
  -4.100  -0.3569   0.06471   0.05680  -0.0261  1.0000  0.2677  -1.8407   0.0000   0.0000   0.0000   0.1742
  -4.000  -0.3509   0.06298   0.05506  -0.0266  1.0000  0.2620  -1.8461   0.0000   0.0000   0.0000   0.1716
  -3.900  -0.3340   0.05989   0.05155  -0.0343  1.0000  0.2462  -1.9189   0.0000   0.0000   0.0000   0.1444
  -3.800  -0.3273   0.05832   0.04997  -0.0345  1.0000  0.2443  -1.9173   0.0000   0.0000   0.0000   0.1417
  -3.700  -0.3194   0.05673   0.04831  -0.0354  1.0000  0.2429  -1.9199   0.0000   0.0000   0.0000   0.1363
  -3.600  -0.3105   0.05514   0.04662  -0.0366  1.0000  0.2421  -1.9240   0.0000   0.0000   0.0000   0.1292
  -3.500  -0.3007   0.05356   0.04491  -0.0380  1.0000  0.2420  -1.9281   0.0000   0.0000   0.0000   0.1208
  -3.400  -0.2903   0.05200   0.04321  -0.0394  1.0000  0.2423  -1.9315   0.0000   0.0000   0.0000   0.1112
  -3.300  -0.2792   0.05046   0.04151  -0.0409  1.0000  0.2427  -1.9340   0.0000   0.0000   0.0000   0.1006
  -3.200  -0.2677   0.04895   0.03982  -0.0423  1.0000  0.2429  -1.9353   0.0000   0.0000   0.0000   0.0890
  -3.100  -0.2558   0.04746   0.03816  -0.0436  1.0000  0.2428  -1.9354   0.0000   0.0000   0.0000   0.0764
  -3.000  -0.2435   0.04601   0.03651  -0.0448  1.0000  0.2423  -1.9346   0.0000   0.0000   0.0000   0.0626
  -2.900  -0.2310   0.04462   0.03490  -0.0460  1.0000  0.2421  -1.9330   0.0000   0.0000   0.0000   0.0475
  -2.800  -0.2181   0.04331   0.03335  -0.0471  1.0000  0.2426  -1.9300   0.0000   0.0000   0.0000   0.0302
  -2.700  -0.2051   0.04210   0.03187  -0.0482  1.0000  0.2439  -1.9259   0.0000   0.0000   0.0000   0.0113
  -2.600  -0.1916   0.04097   0.03036  -0.0492  1.0000  0.2459  -1.9205   0.0000   0.0000   0.0000  -0.0106
  -2.500  -0.1792   0.03990   0.02906  -0.0498  1.0000  0.2487  -1.9092   0.0000   0.0000   0.0000  -0.0322
  -2.400  -0.1708   0.03907   0.02827  -0.0494  1.0000  0.2551  -1.8795   0.0000   0.0000   0.0000  -0.0438
  -2.300  -0.1601   0.03838   0.02743  -0.0496  1.0000  0.2649  -1.8547   0.0000   0.0000   0.0000  -0.0644
  -2.200  -0.1483   0.03759   0.02646  -0.0500  1.0000  0.2757  -1.8318   0.0000   0.0000   0.0000  -0.0918
  -2.100  -0.1388   0.03696   0.02580  -0.0498  1.0000  0.2877  -1.8023   0.0000   0.0000   0.0000  -0.1134
  -2.000  -0.1261   0.03617   0.02479  -0.0502  1.0000  0.2992  -1.7824   0.0000   0.0000   0.0000  -0.1534
  -1.900  -0.1156   0.03546   0.02404  -0.0500  1.0000  0.3114  -1.7576   0.0000   0.0000   0.0000  -0.1885
  -1.800  -0.1037   0.03468   0.02317  -0.0501  1.0000  0.3268  -1.7371   0.0000   0.0000   0.0000  -0.2392
  -1.700  -0.0939   0.03403   0.02257  -0.0497  1.0000  0.3518  -1.7114   0.0000   0.0000   0.0000  -0.2859
  -1.600  -0.0851   0.03338   0.02207  -0.0491  1.0000  0.3868  -1.6864   0.0000   0.0000   0.0000  -0.3340
  -1.500  -0.0765   0.03258   0.02154  -0.0482  1.0000  0.4293  -1.6682   0.0000   0.0000   0.0000  -0.3877
  -1.400  -0.0693   0.03167   0.02105  -0.0467  1.0000  0.4937  -1.6577   0.0000   0.0000   0.0000  -0.4316
  -1.300  -0.0681   0.03073   0.02080  -0.0434  1.0000  0.5771  -1.6572   0.0000   0.0000   0.0000  -0.3946
  -1.200  -0.0725   0.02963   0.02049  -0.0385  1.0000  0.6823  -1.6755   0.0000   0.0000   0.0000  -0.2883
  -1.000  -0.0370   0.02761   0.01759  -0.0414  1.0000  1.0000  -1.6453   0.0000   0.0000   0.0000  -0.8802
  -0.900  -0.0277   0.02779   0.01742  -0.0416  1.0000  1.0000  -1.5986   0.0000   0.0000   0.0000  -1.2654
  -0.800  -0.0189   0.02799   0.01732  -0.0417  1.0000  1.0000  -1.5505   0.0000   0.0000   0.0000  -1.9751
  -0.700  -0.0104   0.02819   0.01726  -0.0418  1.0000  1.0000  -1.5016   0.0000   0.0000   0.0000  -3.7976
  -0.600  -0.0021   0.02840   0.01724  -0.0419  1.0000  1.0000  -1.4524   0.0000   0.0000   0.0000  -19.7096
  -0.500   0.0060   0.02862   0.01724  -0.0419  1.0000  1.0000  -1.4033   0.0000   0.0000   0.0000   7.2474
  -0.400   0.0140   0.02885   0.01721  -0.0419  1.0000  1.0000  -1.3550   0.0000   0.0000   0.0000   3.2547
  -0.300   0.0219   0.02909   0.01726  -0.0420  1.0000  1.0000  -1.3055   0.0000   0.0000   0.0000   2.1736
  -0.200   0.0297   0.02934   0.01733  -0.0420  1.0000  1.0000  -1.2562   0.0000   0.0000   0.0000   1.6694
  -0.100   0.0374   0.02960   0.01742  -0.0420  1.0000  1.0000  -1.2072   0.0000   0.0000   0.0000   1.3774
   0.000   0.0450   0.02986   0.01753  -0.0421  1.0000  1.0000  -1.1586   0.0000   0.0000   0.0000   1.1870
   0.100   0.0525   0.03014   0.01766  -0.0421  1.0000  1.0000  -1.1104   0.0000   0.0000   0.0000   1.0528
   0.200   0.0599   0.03043   0.01781  -0.0421  1.0000  1.0000  -1.0626   0.0000   0.0000   0.0000   0.9531
   0.300   0.0673   0.03073   0.01797  -0.0421  1.0000  1.0000  -1.0153   0.0000   0.0000   0.0000   0.8762
   0.400   0.0746   0.03104   0.01815  -0.0422  1.0000  1.0000  -0.9685   0.0000   0.0000   0.0000   0.8150
   0.500   0.0818   0.03135   0.01834  -0.0422  1.0000  1.0000  -0.9222   0.0000   0.0000   0.0000   0.7651
   0.600   0.0889   0.03168   0.01856  -0.0422  1.0000  1.0000  -0.8765   0.0000   0.0000   0.0000   0.7238
   0.700   0.0960   0.03202   0.01878  -0.0423  1.0000  1.0000  -0.8314   0.0000   0.0000   0.0000   0.6890
   0.800   0.1030   0.03236   0.01903  -0.0423  1.0000  1.0000  -0.7868   0.0000   0.0000   0.0000   0.6592
   0.900   0.1099   0.03272   0.01928  -0.0424  1.0000  1.0000  -0.7427   0.0000   0.0000   0.0000   0.6335
   1.000   0.1167   0.03309   0.01956  -0.0424  1.0000  1.0000  -0.6991   0.0000   0.0000   0.0000   0.6111
   1.100   0.1235   0.03347   0.01984  -0.0425  1.0000  1.0000  -0.6639   0.0000   0.0000   0.0000   0.5914
   1.200   0.1303   0.03386   0.02015  -0.0425  1.0000  1.0000  -0.6300   0.0000   0.0000   0.0000   0.5739
   1.300   0.1370   0.03426   0.02042  -0.0426  1.0000  1.0000  -0.5970   0.0000   0.0000   0.0000   0.5584
   1.400   0.1436   0.03467   0.02075  -0.0427  1.0000  1.0000  -0.5638   0.0000   0.0000   0.0000   0.5444
   1.500   0.1501   0.03509   0.02110  -0.0428  1.0000  1.0000  -0.5311   0.0000   0.0000   0.0000   0.5319
   1.600   0.1566   0.03552   0.02146  -0.0429  1.0000  1.0000  -0.5005   0.0000   0.0000   0.0000   0.5205
   1.700   0.1630   0.03597   0.02183  -0.0430  1.0000  1.0000  -0.5052   0.0000   0.0000   0.0000   0.5102
   1.800   0.1694   0.03642   0.02222  -0.0431  1.0000  1.0000  -0.5107   0.0000   0.0000   0.0000   0.5008
   1.900   0.1757   0.03689   0.02262  -0.0432  1.0000  1.0000  -0.5160   0.0000   0.0000   0.0000   0.4922
   2.000   0.1820   0.03736   0.02304  -0.0433  1.0000  1.0000  -0.5212   0.0000   0.0000   0.0000   0.4843
   2.100   0.1881   0.03785   0.02348  -0.0434  1.0000  1.0000  -0.5263   0.0000   0.0000   0.0000   0.4771
   2.200   0.1943   0.03835   0.02392  -0.0436  1.0000  1.0000  -0.5313   0.0000   0.0000   0.0000   0.4704
   2.300   0.2004   0.03886   0.02438  -0.0437  1.0000  1.0000  -0.5361   0.0000   0.0000   0.0000   0.4642
   2.400   0.2064   0.03938   0.02486  -0.0438  1.0000  1.0000  -0.5409   0.0000   0.0000   0.0000   0.4584
   2.500   0.2124   0.03991   0.02535  -0.0440  1.0000  1.0000  -0.5460   0.0000   0.0000   0.0000   0.4531
   2.600   0.2183   0.04046   0.02585  -0.0442  1.0000  1.0000  -0.5516   0.0000   0.0000   0.0000   0.4481
   2.700   0.2242   0.04101   0.02637  -0.0443  1.0000  1.0000  -0.5570   0.0000   0.0000   0.0000   0.4435
   2.800   0.2300   0.04158   0.02690  -0.0445  1.0000  1.0000  -0.5623   0.0000   0.0000   0.0000   0.4392
   2.900   0.2358   0.04216   0.02744  -0.0447  1.0000  1.0000  -0.5674   0.0000   0.0000   0.0000   0.4352
   3.000   0.2415   0.04275   0.02797  -0.0449  1.0000  1.0000  -0.5725   0.0000   0.0000   0.0000   0.4314
   3.100   0.2472   0.04335   0.02854  -0.0451  1.0000  1.0000  -0.5774   0.0000   0.0000   0.0000   0.4278
   3.200   0.2529   0.04396   0.02913  -0.0453  1.0000  1.0000  -0.5821   0.0000   0.0000   0.0000   0.4245
   3.300   0.2585   0.04459   0.02973  -0.0456  1.0000  1.0000  -0.5867   0.0000   0.0000   0.0000   0.4214
   3.400   0.2640   0.04523   0.03034  -0.0458  1.0000  1.0000  -0.5912   0.0000   0.0000   0.0000   0.4185
   3.500   0.2695   0.04588   0.03097  -0.0460  1.0000  1.0000  -0.5959   0.0000   0.0000   0.0000   0.4157
   3.600   0.2750   0.04654   0.03161  -0.0463  1.0000  1.0000  -0.6014   0.0000   0.0000   0.0000   0.4131
   3.700   0.2805   0.04721   0.03227  -0.0465  1.0000  1.0000  -0.6067   0.0000   0.0000   0.0000   0.4107
   3.800   0.2858   0.04790   0.03294  -0.0468  1.0000  1.0000  -0.6119   0.0000   0.0000   0.0000   0.4084
   3.900   0.2912   0.04859   0.03362  -0.0470  1.0000  1.0000  -0.6170   0.0000   0.0000   0.0000   0.4062
   4.000   0.2965   0.04930   0.03432  -0.0473  1.0000  1.0000  -0.6219   0.0000   0.0000   0.0000   0.4042
   4.100   0.3018   0.05002   0.03503  -0.0476  1.0000  1.0000  -0.6267   0.0000   0.0000   0.0000   0.4022
   4.200   0.3070   0.05075   0.03575  -0.0479  1.0000  1.0000  -0.6314   0.0000   0.0000   0.0000   0.4004
   4.300   0.3179   0.05180   0.03681  -0.0494  0.9957  1.0000  -0.6399   0.0000   0.0000   0.0000   0.3998
   4.400   0.3451   0.05378   0.03879  -0.0539  0.9789  1.0000  -0.6610   0.0000   0.0000   0.0000   0.4007
   4.500   0.3682   0.05557   0.04058  -0.0575  0.9644  1.0000  -0.6794   0.0000   0.0000   0.0000   0.4005
   4.600   0.3811   0.05670   0.04173  -0.0592  0.9560  1.0000  -0.6896   0.0000   0.0000   0.0000   0.3996
   4.700   0.4013   0.05837   0.04343  -0.0620  0.9445  1.0000  -0.7078   0.0000   0.0000   0.0000   0.3989
   4.800   0.4070   0.05912   0.04419  -0.0625  0.9396  1.0000  -0.7136   0.0000   0.0000   0.0000   0.3978
   4.900   0.4215   0.06037   0.04546  -0.0643  0.9306  1.0000  -0.7273   0.0000   0.0000   0.0000   0.3968
   5.000   0.4371   0.06172   0.04682  -0.0663  0.9192  1.0000  -0.7421   0.0000   0.0000   0.0000   0.3957
   5.100   0.4438   0.06256   0.04768  -0.0668  0.9130  1.0000  -0.7486   0.0000   0.0000   0.0000   0.3946
   5.200   0.4683   0.06441   0.04955  -0.0700  0.8990  1.0000  -0.7718   0.0000   0.0000   0.0000   0.3934
   5.300   0.4703   0.06509   0.05024  -0.0698  0.8958  1.0000  -0.7736   0.0000   0.0000   0.0000   0.3925
   5.400   0.4741   0.06592   0.05110  -0.0700  0.8928  1.0000  -0.7771   0.0000   0.0000   0.0000   0.3916
   5.500   0.4803   0.06687   0.05207  -0.0705  0.8885  1.0000  -0.7826   0.0000   0.0000   0.0000   0.3907
   5.600   0.5025   0.06859   0.05381  -0.0732  0.8742  1.0000  -0.8036   0.0000   0.0000   0.0000   0.3893
   5.700   0.5043   0.06930   0.05455  -0.0730  0.8703  1.0000  -0.8051   0.0000   0.0000   0.0000   0.3884
   5.800   0.5098   0.07022   0.05549  -0.0734  0.8651  1.0000  -0.8118   0.0000   0.0000   0.0000   0.3875
   5.900   0.5322   0.07194   0.05725  -0.0759  0.8510  1.0000  -0.8367   0.0000   0.0000   0.0000   0.3861
   6.000   0.5338   0.07283   0.05816  -0.0758  0.8493  1.0000  -0.8389   0.0000   0.0000   0.0000   0.3855
   6.100   0.5365   0.07384   0.05920  -0.0760  0.8486  1.0000  -0.8419   0.0000   0.0000   0.0000   0.3850
   6.200   0.5391   0.07485   0.06023  -0.0762  0.8476  1.0000  -0.8448   0.0000   0.0000   0.0000   0.3845
   6.300   0.5420   0.07586   0.06127  -0.0763  0.8462  1.0000  -0.8477   0.0000   0.0000   0.0000   0.3840
   6.400   0.5453   0.07689   0.06233  -0.0766  0.8444  1.0000  -0.8510   0.0000   0.0000   0.0000   0.3835
   6.500   0.5494   0.07796   0.06343  -0.0769  0.8420  1.0000  -0.8551   0.0000   0.0000   0.0000   0.3830
   6.600   0.5531   0.07909   0.06459  -0.0773  0.8410  1.0000  -0.8584   0.0000   0.0000   0.0000   0.3826
   6.700   0.5541   0.08029   0.06590  -0.0775  0.8454  1.0000  -0.8584   0.0000   0.0000   0.0000   0.3826
   6.800   0.5619   0.08221   0.06784  -0.0788  0.8520  1.0000  -0.8656   0.0000   0.0000   0.0000   0.3829
   8.800   0.5952   0.10491   0.09115  -0.0828  0.8864  1.0000  -0.9139   0.0000   0.0000   0.0000   0.3796
   8.900   0.6085   0.10747   0.09376  -0.0848  0.8803  1.0000  -0.9309   0.0000   0.0000   0.0000   0.3797
   9.000   0.6208   0.11045   0.09678  -0.0866  0.8767  1.0000  -0.9466   0.0000   0.0000   0.0000   0.3799
   9.100   0.6148   0.10988   0.09626  -0.0855  0.8715  1.0000  -0.9395   0.0000   0.0000   0.0000   0.3792
   9.200   0.6210   0.11109   0.09752  -0.0862  0.8617  1.0000  -0.9475   0.0000   0.0000   0.0000   0.3789
   9.300   0.6437   0.11558   0.10207  -0.0895  0.8534  1.0000  -0.9801   0.0000   0.0000   0.0000   0.3791
   9.400   0.6349   0.11449   0.10102  -0.0879  0.8469  1.0000  -0.9702   0.0000   0.0000   0.0000   0.3784
   9.500   0.6479   0.11663   0.10324  -0.0895  0.8341  1.0000  -0.9917   0.0000   0.0000   0.0000   0.3780
   9.600   0.6570   0.11903   0.10568  -0.0907  0.8280  1.0000  -1.0071   0.0000   0.0000   0.0000   0.3778
   9.700   0.6544   0.11888   0.10558  -0.0900  0.8186  1.0000  -1.0057   0.0000   0.0000   0.0000   0.3772
   9.800   0.6658   0.12116   0.10805  -0.0914  0.8110  1.0000  -1.0242   0.0000   0.0000   0.0000   0.3769
   9.900   0.6837   0.12534   0.11228  -0.0939  0.8064  1.0000  -1.0514   0.0000   0.0000   0.0000   0.3770
  10.000   0.6753   0.12451   0.11148  -0.0926  0.8027  1.0000  -1.0408   0.0000   0.0000   0.0000   0.3766
  10.100   0.6755   0.12496   0.11198  -0.0924  0.7948  1.0000  -1.0427   0.0000   0.0000   0.0000   0.3761
  10.200   0.6873   0.12741   0.11451  -0.0938  0.7872  1.0000  -1.0611   0.0000   0.0000   0.0000   0.3758
  10.300   0.6995   0.13064   0.11779  -0.0954  0.7819  1.0000  -1.0793   0.0000   0.0000   0.0000   0.3756
  10.400   0.6922   0.12973   0.11691  -0.0942  0.7739  1.0000  -1.0702   0.0000   0.0000   0.0000   0.3751
  10.500   0.7102   0.13308   0.12036  -0.0962  0.7616  1.0000  -1.0971   0.0000   0.0000   0.0000   0.3744
  10.600   0.7103   0.13405   0.12135  -0.0961  0.7560  1.0000  -1.0977   0.0000   0.0000   0.0000   0.3742
  10.700   0.7117   0.13447   0.12183  -0.0959  0.7445  1.0000  -1.1020   0.0000   0.0000   0.0000   0.3735
  10.800   0.7341   0.13936   0.12683  -0.0985  0.7363  1.0000  -1.1425   0.0000   0.0000   0.0000   0.3730
  10.900   0.7282   0.13917   0.12665  -0.0978  0.7332  1.0000  -1.1349   0.0000   0.0000   0.0000   0.3729
  11.000   0.7250   0.13907   0.12658  -0.0972  0.7257  1.0000  -1.1323   0.0000   0.0000   0.0000   0.3726
  11.100   0.7334   0.14109   0.12868  -0.0981  0.7183  1.0000  -1.1489   0.0000   0.0000   0.0000   0.3722
  11.200   0.7520   0.14574   0.13343  -0.1003  0.7128  1.0000  -1.1814   0.0000   0.0000   0.0000   0.3718
  11.300   0.7460   0.14548   0.13317  -0.0996  0.7095  1.0000  -1.1728   0.0000   0.0000   0.0000   0.3718
  11.400   0.7428   0.14528   0.13301  -0.0991  0.7013  1.0000  -1.1695   0.0000   0.0000   0.0000   0.3715
  11.500   0.7602   0.14904   0.13687  -0.1007  0.6908  1.0000  -1.2004   0.0000   0.0000   0.0000   0.3706
  11.600   0.7606   0.15020   0.13805  -0.1008  0.6857  1.0000  -1.2017   0.0000   0.0000   0.0000   0.3705
  11.700   0.7588   0.15005   0.13794  -0.1003  0.6750  1.0000  -1.2006   0.0000   0.0000   0.0000   0.3701
  11.800   0.7806   0.15529   0.14328  -0.1023  0.6642  1.0000  -1.2376   0.0000   0.0000   0.0000   0.3689
  11.900   0.7706   0.15381   0.14181  -0.1013  0.6588  1.0000  -1.2214   0.0000   0.0000   0.0000   0.3691
  12.000   0.7738   0.15488   0.14293  -0.1015  0.6503  1.0000  -1.2271   0.0000   0.0000   0.0000   0.3687
  12.100   0.7891   0.15876   0.14701  -0.1029  0.6435  1.0000  -1.2559   0.0000   0.0000   0.0000   0.3680
  12.200   0.7949   0.16140   0.14969  -0.1037  0.6402  1.0000  -1.2683   0.0000   0.0000   0.0000   0.3679
  12.300   0.7866   0.16022   0.14852  -0.1029  0.6353  1.0000  -1.2545   0.0000   0.0000   0.0000   0.3681
  12.400   0.7886   0.16114   0.14948  -0.1031  0.6278  1.0000  -1.2605   0.0000   0.0000   0.0000   0.3679
  12.500   0.8007   0.16437   0.15280  -0.1042  0.6211  1.0000  -1.2852   0.0000   0.0000   0.0000   0.3672
  12.600   0.8113   0.16820   0.15669  -0.1053  0.6166  1.0000  -1.3054   0.0000   0.0000   0.0000   0.3668
  12.700   0.8021   0.16662   0.15511  -0.1046  0.6116  1.0000  -1.2891   0.0000   0.0000   0.0000   0.3672
  12.800   0.8066   0.16783   0.15638  -0.1048  0.6013  1.0000  -1.2995   0.0000   0.0000   0.0000   0.3666
  12.900   0.8225   0.17258   0.16121  -0.1060  0.5925  1.0000  -1.3303   0.0000   0.0000   0.0000   0.3655
  13.000   0.8141   0.17102   0.15965  -0.1054  0.5861  1.0000  -1.3150   0.0000   0.0000   0.0000   0.3660


