xflr5 v6.61

 Calculated polar for: SD7032-099-88

 1 1 Reynolds number fixed          Mach number fixed         

 xtrf =   1.000 (top)        1.000 (bottom)
 Mach =   0.000     Re =     0.125 e 6     Ncrit =   9.000

  alpha     CL        CD       CDp       Cm    Top Xtr Bot Xtr   Cpmin    Chinge    XCp    
 ------- -------- --------- --------- -------- ------- ------- -------- --------- ---------
 -10.000  -0.3212   0.11662   0.11207  -0.0366  1.0000  0.0584  -1.4561   0.0000   0.0000   0.0000   0.1272
  -9.900  -0.3227   0.11613   0.11161  -0.0374  1.0000  0.0588  -1.4789   0.0000   0.0000   0.0000   0.1252
  -9.800  -0.3237   0.11557   0.11108  -0.0382  1.0000  0.0590  -1.4971   0.0000   0.0000   0.0000   0.1235
  -9.700  -0.3248   0.11493   0.11047  -0.0388  1.0000  0.0592  -1.5134   0.0000   0.0000   0.0000   0.1221
  -9.600  -0.3259   0.11422   0.10979  -0.0394  1.0000  0.0594  -1.5283   0.0000   0.0000   0.0000   0.1209
  -9.500  -0.3265   0.11343   0.10903  -0.0398  1.0000  0.0595  -1.5376   0.0000   0.0000   0.0000   0.1200
  -9.400  -0.3268   0.11259   0.10821  -0.0401  1.0000  0.0596  -1.5446   0.0000   0.0000   0.0000   0.1192
  -9.300  -0.3273   0.11172   0.10737  -0.0404  1.0000  0.0597  -1.5516   0.0000   0.0000   0.0000   0.1187
  -9.200  -0.3280   0.11083   0.10651  -0.0407  1.0000  0.0598  -1.5601   0.0000   0.0000   0.0000   0.1183
  -9.100  -0.3290   0.10993   0.10563  -0.0408  1.0000  0.0598  -1.5738   0.0000   0.0000   0.0000   0.1183
  -9.000  -0.3302   0.10903   0.10476  -0.0410  1.0000  0.0599  -1.5877   0.0000   0.0000   0.0000   0.1186
  -8.900  -0.3318   0.10814   0.10390  -0.0410  1.0000  0.0599  -1.6018   0.0000   0.0000   0.0000   0.1192
  -8.800  -0.3338   0.10726   0.10306  -0.0410  1.0000  0.0600  -1.6161   0.0000   0.0000   0.0000   0.1202
  -8.700  -0.3362   0.10642   0.10225  -0.0408  1.0000  0.0600  -1.6307   0.0000   0.0000   0.0000   0.1216
  -8.600  -0.3391   0.10561   0.10147  -0.0406  1.0000  0.0600  -1.6455   0.0000   0.0000   0.0000   0.1236
  -8.500  -0.3364   0.09883   0.09473  -0.0395  1.0000  0.0617  -1.6460   0.0000   0.0000   0.0000   0.1257
  -8.400  -0.3302   0.09705   0.09294  -0.0381  1.0000  0.0626  -1.5964   0.0000   0.0000   0.0000   0.1276
  -8.300  -0.3266   0.09581   0.09171  -0.0370  1.0000  0.0633  -1.5636   0.0000   0.0000   0.0000   0.1297
  -8.200  -0.3246   0.09478   0.09069  -0.0361  1.0000  0.0639  -1.5411   0.0000   0.0000   0.0000   0.1319
  -8.100  -0.3238   0.09384   0.08974  -0.0353  1.0000  0.0645  -1.5256   0.0000   0.0000   0.0000   0.1342
  -8.000  -0.3240   0.09298   0.08890  -0.0345  1.0000  0.0651  -1.5156   0.0000   0.0000   0.0000   0.1368
  -7.900  -0.3250   0.09217   0.08812  -0.0337  1.0000  0.0657  -1.5095   0.0000   0.0000   0.0000   0.1397
  -7.800  -0.3267   0.09141   0.08739  -0.0329  1.0000  0.0662  -1.5066   0.0000   0.0000   0.0000   0.1428
  -7.700  -0.3291   0.09069   0.08669  -0.0321  1.0000  0.0668  -1.5062   0.0000   0.0000   0.0000   0.1462
  -7.600  -0.3321   0.09000   0.08604  -0.0313  1.0000  0.0673  -1.5079   0.0000   0.0000   0.0000   0.1498
  -7.500  -0.3357   0.08935   0.08541  -0.0304  1.0000  0.0678  -1.5116   0.0000   0.0000   0.0000   0.1536
  -7.400  -0.3398   0.08872   0.08482  -0.0294  1.0000  0.0682  -1.5167   0.0000   0.0000   0.0000   0.1576
  -7.300  -0.3446   0.08814   0.08427  -0.0285  1.0000  0.0686  -1.5234   0.0000   0.0000   0.0000   0.1619
  -7.200  -0.3499   0.08758   0.08375  -0.0274  1.0000  0.0690  -1.5313   0.0000   0.0000   0.0000   0.1663
  -7.100  -0.3559   0.08707   0.08327  -0.0263  1.0000  0.0694  -1.5405   0.0000   0.0000   0.0000   0.1710
  -7.000  -0.3625   0.08659   0.08283  -0.0251  1.0000  0.0697  -1.5507   0.0000   0.0000   0.0000   0.1757
  -6.900  -0.3695   0.08612   0.08240  -0.0239  1.0000  0.0699  -1.5618   0.0000   0.0000   0.0000   0.1805
  -6.800  -0.3764   0.08562   0.08194  -0.0228  1.0000  0.0702  -1.5733   0.0000   0.0000   0.0000   0.1848
  -6.700  -0.3820   0.08498   0.08133  -0.0221  1.0000  0.0706  -1.5840   0.0000   0.0000   0.0000   0.1878
  -6.600  -0.3867   0.08422   0.08060  -0.0217  1.0000  0.0711  -1.5945   0.0000   0.0000   0.0000   0.1898
  -6.500  -0.3911   0.08341   0.07982  -0.0214  1.0000  0.0716  -1.6056   0.0000   0.0000   0.0000   0.1913
  -6.400  -0.3952   0.08255   0.07898  -0.0212  1.0000  0.0721  -1.6171   0.0000   0.0000   0.0000   0.1924
  -6.300  -0.3990   0.08163   0.07809  -0.0212  1.0000  0.0727  -1.6294   0.0000   0.0000   0.0000   0.1930
  -6.200  -0.4024   0.08065   0.07713  -0.0214  1.0000  0.0733  -1.6426   0.0000   0.0000   0.0000   0.1932
  -6.100  -0.4053   0.07961   0.07611  -0.0217  1.0000  0.0740  -1.6570   0.0000   0.0000   0.0000   0.1928
  -6.000  -0.4078   0.07850   0.07501  -0.0223  1.0000  0.0748  -1.6733   0.0000   0.0000   0.0000   0.1918
  -5.900  -0.4097   0.07730   0.07382  -0.0232  1.0000  0.0757  -1.6927   0.0000   0.0000   0.0000   0.1899
  -5.800  -0.4108   0.07599   0.07252  -0.0247  1.0000  0.0768  -1.7177   0.0000   0.0000   0.0000   0.1867
  -5.700  -0.4102   0.07450   0.07099  -0.0277  1.0000  0.0785  -1.7641   0.0000   0.0000   0.0000   0.1793
  -5.600  -0.3912   0.07320   0.06937  -0.0386  0.9974  0.0815  -1.8910   0.0000   0.0000   0.0000   0.1480
  -5.500  -0.3756   0.07142   0.06743  -0.0428  0.9944  0.0818  -1.9138   0.0000   0.0000   0.0000   0.1326
  -5.400  -0.3783   0.06499   0.06115  -0.0441  0.9931  0.0837  -1.9393   0.0000   0.0000   0.0000   0.1299
  -5.300  -0.3694   0.06329   0.05952  -0.0441  0.9914  0.0849  -1.8859   0.0000   0.0000   0.0000   0.1272
  -5.200  -0.3591   0.06200   0.05827  -0.0444  0.9897  0.0862  -1.8357   0.0000   0.0000   0.0000   0.1228
  -5.100  -0.3501   0.06082   0.05711  -0.0448  0.9871  0.0877  -1.7985   0.0000   0.0000   0.0000   0.1185
  -5.000  -0.3395   0.05950   0.05577  -0.0459  0.9842  0.0895  -1.7703   0.0000   0.0000   0.0000   0.1111
  -4.900  -0.3272   0.05797   0.05420  -0.0478  0.9813  0.0919  -1.7514   0.0000   0.0000   0.0000   0.1002
  -4.800  -0.3126   0.05614   0.05230  -0.0507  0.9784  0.0952  -1.7458   0.0000   0.0000   0.0000   0.0840
  -4.700  -0.2859   0.05265   0.04825  -0.0604  0.9747  0.1064  -1.8553   0.0000   0.0000   0.0000   0.0347
  -4.600  -0.2750   0.05051   0.04621  -0.0612  0.9731  0.1079  -1.8168   0.0000   0.0000   0.0000   0.0233
  -4.500  -0.2615   0.04902   0.04477  -0.0623  0.9715  0.1098  -1.7775   0.0000   0.0000   0.0000   0.0074
  -4.400  -0.2495   0.04783   0.04358  -0.0632  0.9692  0.1120  -1.7481   0.0000   0.0000   0.0000  -0.0076
  -4.300  -0.2408   0.04671   0.04243  -0.0635  0.9653  0.1143  -1.7330   0.0000   0.0000   0.0000  -0.0183
  -4.200  -0.2082   0.03810   0.03267  -0.0689  0.9639  0.0577  -2.2500   0.0000   0.0000   0.0000  -0.0867
  -4.100  -0.1961   0.03536   0.02976  -0.0703  0.9615  0.0544  -2.2947   0.0000   0.0000   0.0000  -0.1149
  -4.000  -0.1811   0.03306   0.02718  -0.0717  0.9592  0.0515  -2.3547   0.0000   0.0000   0.0000  -0.1528
  -3.900  -0.1646   0.03113   0.02495  -0.0730  0.9570  0.0501  -2.4070   0.0000   0.0000   0.0000  -0.2008
  -3.800  -0.1477   0.03039   0.02405  -0.0742  0.9547  0.0532  -2.3736   0.0000   0.0000   0.0000  -0.2610
  -3.700  -0.1293   0.02974   0.02319  -0.0756  0.9526  0.0565  -2.3479   0.0000   0.0000   0.0000  -0.3436
  -3.600  -0.1108   0.02864   0.02185  -0.0769  0.9509  0.0572  -2.3434   0.0000   0.0000   0.0000  -0.4547
  -3.500  -0.0925   0.02724   0.02019  -0.0783  0.9496  0.0567  -2.3490   0.0000   0.0000   0.0000  -0.6088
  -3.400  -0.0736   0.02610   0.01882  -0.0796  0.9484  0.0568  -2.3403   0.0000   0.0000   0.0000  -0.8479
  -3.300  -0.0657   0.02541   0.01799  -0.0789  0.9439  0.0571  -2.3300   0.0000   0.0000   0.0000  -0.9690
  -3.200  -0.0537   0.02471   0.01711  -0.0790  0.9401  0.0577  -2.3125   0.0000   0.0000   0.0000  -1.2406
  -3.100  -0.0391   0.02410   0.01635  -0.0794  0.9369  0.0587  -2.2789   0.0000   0.0000   0.0000  -1.8104
  -3.000  -0.0228   0.02371   0.01582  -0.0801  0.9341  0.0599  -2.2267   0.0000   0.0000   0.0000  -3.3132
  -2.900  -0.0076   0.02214   0.01420  -0.0811  0.9324  0.0650  -2.1967   0.0000   0.0000   0.0000  -10.5971
  -2.800   0.0097   0.02173   0.01381  -0.0823  0.9303  0.0702  -2.1097   0.0000   0.0000   0.0000   8.8692
  -2.700   0.0280   0.02120   0.01322  -0.0834  0.9285  0.0735  -2.0440   0.0000   0.0000   0.0000   3.2638
  -2.600   0.0469   0.02071   0.01267  -0.0846  0.9269  0.0772  -1.9740   0.0000   0.0000   0.0000   2.0749
  -2.500   0.0665   0.02032   0.01221  -0.0860  0.9254  0.0809  -1.8942   0.0000   0.0000   0.0000   1.5549
  -2.400   0.0736   0.01980   0.01172  -0.0852  0.9206  0.0851  -1.8543   0.0000   0.0000   0.0000   1.4188
  -2.300   0.0833   0.01948   0.01146  -0.0850  0.9158  0.0930  -1.7864   0.0000   0.0000   0.0000   1.2799
  -2.200   0.0979   0.01923   0.01118  -0.0855  0.9124  0.1030  -1.7108   0.0000   0.0000   0.0000   1.1311
  -2.100   0.1140   0.01860   0.01067  -0.0864  0.9098  0.1226  -1.6467   0.0000   0.0000   0.0000   1.0139
  -2.000   0.1302   0.01745   0.01019  -0.0875  0.9079  0.2445  -1.5977   0.0000   0.0000   0.0000   0.9278
  -1.900   0.1459   0.01670   0.01011  -0.0886  0.9059  0.4050  -1.5029   0.0000   0.0000   0.0000   0.8621
  -1.800   0.1618   0.01621   0.01008  -0.0894  0.9041  0.5377  -1.4171   0.0000   0.0000   0.0000   0.8060
  -1.700   0.1763   0.01584   0.01012  -0.0894  0.9025  0.6503  -1.3383   0.0000   0.0000   0.0000   0.7604
  -1.600   0.1895   0.01558   0.01015  -0.0889  0.9011  0.7492  -1.2624   0.0000   0.0000   0.0000   0.7216
  -1.500   0.1849   0.01559   0.01026  -0.0856  0.8925  0.7846  -1.2438   0.0000   0.0000   0.0000   0.7154
  -1.400   0.1930   0.01541   0.01021  -0.0841  0.8886  0.8502  -1.1846   0.0000   0.0000   0.0000   0.6878
  -1.300   0.2204   0.01514   0.01000  -0.0863  0.8876  0.9436  -1.0682   0.0000   0.0000   0.0000   0.6431
  -1.200   0.2505   0.01496   0.00970  -0.0899  0.8861  1.0000  -0.9488   0.0000   0.0000   0.0000   0.6101
  -1.100   0.2686   0.01487   0.00949  -0.0911  0.8835  1.0000  -0.8660   0.0000   0.0000   0.0000   0.5902
  -1.000   0.2874   0.01477   0.00928  -0.0924  0.8814  1.0000  -0.7822   0.0000   0.0000   0.0000   0.5723
  -0.900   0.3065   0.01465   0.00906  -0.0938  0.8794  1.0000  -0.6987   0.0000   0.0000   0.0000   0.5564
  -0.800   0.3256   0.01453   0.00883  -0.0951  0.8777  1.0000  -0.6244   0.0000   0.0000   0.0000   0.5422
  -0.700   0.3279   0.01464   0.00890  -0.0935  0.8695  1.0000  -0.5976   0.0000   0.0000   0.0000   0.5354
  -0.600   0.3403   0.01460   0.00878  -0.0937  0.8649  1.0000  -0.5987   0.0000   0.0000   0.0000   0.5253
  -0.500   0.3555   0.01450   0.00862  -0.0943  0.8616  1.0000  -0.6113   0.0000   0.0000   0.0000   0.5150
  -0.400   0.3718   0.01438   0.00842  -0.0950  0.8588  1.0000  -0.6247   0.0000   0.0000   0.0000   0.5051
  -0.300   0.3887   0.01424   0.00821  -0.0958  0.8564  1.0000  -0.6385   0.0000   0.0000   0.0000   0.4959
  -0.200   0.4055   0.01410   0.00801  -0.0965  0.8543  1.0000  -0.6524   0.0000   0.0000   0.0000   0.4874
  -0.100   0.4107   0.01420   0.00807  -0.0955  0.8468  1.0000  -0.6588   0.0000   0.0000   0.0000   0.4817
   0.000   0.4218   0.01417   0.00799  -0.0953  0.8416  1.0000  -0.6698   0.0000   0.0000   0.0000   0.4751
   0.100   0.4356   0.01407   0.00783  -0.0956  0.8378  1.0000  -0.6828   0.0000   0.0000   0.0000   0.4684
   0.200   0.4503   0.01394   0.00765  -0.0959  0.8347  1.0000  -0.6965   0.0000   0.0000   0.0000   0.4619
   0.300   0.4655   0.01379   0.00743  -0.0963  0.8319  1.0000  -0.7107   0.0000   0.0000   0.0000   0.4557
   0.400   0.4769   0.01376   0.00736  -0.0962  0.8273  1.0000  -0.7221   0.0000   0.0000   0.0000   0.4504
   0.500   0.4849   0.01381   0.00738  -0.0956  0.8203  1.0000  -0.7311   0.0000   0.0000   0.0000   0.4456
   0.600   0.4969   0.01374   0.00726  -0.0955  0.8155  1.0000  -0.7442   0.0000   0.0000   0.0000   0.4406
   0.700   0.5103   0.01362   0.00710  -0.0956  0.8117  1.0000  -0.7584   0.0000   0.0000   0.0000   0.4356
   0.800   0.5245   0.01349   0.00691  -0.0958  0.8085  1.0000  -0.7732   0.0000   0.0000   0.0000   0.4308
   0.900   0.5353   0.01348   0.00687  -0.0955  0.8032  1.0000  -0.7854   0.0000   0.0000   0.0000   0.4266
   1.000   0.5441   0.01351   0.00688  -0.0950  0.7962  1.0000  -0.7972   0.0000   0.0000   0.0000   0.4227
   1.100   0.5559   0.01345   0.00677  -0.0949  0.7911  1.0000  -0.8116   0.0000   0.0000   0.0000   0.4186
   1.200   0.5690   0.01334   0.00662  -0.0949  0.7870  1.0000  -0.8271   0.0000   0.0000   0.0000   0.4146
   1.300   0.5826   0.01324   0.00646  -0.0950  0.7834  1.0000  -0.8431   0.0000   0.0000   0.0000   0.4108
   1.400   0.5906   0.01332   0.00654  -0.0944  0.7757  1.0000  -0.8543   0.0000   0.0000   0.0000   0.4075
   1.500   0.6013   0.01330   0.00649  -0.0941  0.7695  1.0000  -0.8680   0.0000   0.0000   0.0000   0.4041
   1.600   0.6136   0.01323   0.00639  -0.0940  0.7645  1.0000  -0.8830   0.0000   0.0000   0.0000   0.4007
   1.700   0.6266   0.01315   0.00624  -0.0940  0.7604  1.0000  -0.9002   0.0000   0.0000   0.0000   0.3974
   1.800   0.6356   0.01322   0.00631  -0.0936  0.7530  1.0000  -0.9138   0.0000   0.0000   0.0000   0.3945
   1.900   0.6461   0.01323   0.00628  -0.0933  0.7462  1.0000  -0.9288   0.0000   0.0000   0.0000   0.3916
   2.000   0.6580   0.01318   0.00619  -0.0932  0.7407  1.0000  -0.9453   0.0000   0.0000   0.0000   0.3887
   2.100   0.6706   0.01313   0.00607  -0.0931  0.7362  1.0000  -0.9626   0.0000   0.0000   0.0000   0.3859
   2.200   0.6794   0.01322   0.00616  -0.0927  0.7280  1.0000  -0.9760   0.0000   0.0000   0.0000   0.3833
   2.300   0.6901   0.01323   0.00614  -0.0924  0.7212  1.0000  -0.9915   0.0000   0.0000   0.0000   0.3807
   2.400   0.7019   0.01321   0.00606  -0.0923  0.7156  1.0000  -1.0081   0.0000   0.0000   0.0000   0.3782
   2.500   0.7130   0.01324   0.00605  -0.0921  0.7095  1.0000  -1.0240   0.0000   0.0000   0.0000   0.3758
   2.600   0.7225   0.01331   0.00611  -0.0917  0.7015  1.0000  -1.0383   0.0000   0.0000   0.0000   0.3735
   2.700   0.7336   0.01332   0.00608  -0.0915  0.6948  1.0000  -1.0543   0.0000   0.0000   0.0000   0.3712
   2.800   0.7456   0.01333   0.00601  -0.0914  0.6893  1.0000  -1.0730   0.0000   0.0000   0.0000   0.3689
   2.900   0.7548   0.01342   0.00611  -0.0910  0.6809  1.0000  -1.0889   0.0000   0.0000   0.0000   0.3668
   3.000   0.7652   0.01346   0.00612  -0.0908  0.6734  1.0000  -1.1062   0.0000   0.0000   0.0000   0.3647
   3.100   0.7767   0.01349   0.00612  -0.0906  0.6672  1.0000  -1.1249   0.0000   0.0000   0.0000   0.3627
   3.200   0.7868   0.01357   0.00619  -0.0903  0.6596  1.0000  -1.1419   0.0000   0.0000   0.0000   0.3607
   3.300   0.7967   0.01364   0.00624  -0.0900  0.6516  1.0000  -1.1589   0.0000   0.0000   0.0000   0.3588
   3.400   0.8077   0.01369   0.00623  -0.0898  0.6449  1.0000  -1.1772   0.0000   0.0000   0.0000   0.3569
   3.500   0.8182   0.01378   0.00627  -0.0895  0.6376  1.0000  -1.1950   0.0000   0.0000   0.0000   0.3551
   3.600   0.8279   0.01386   0.00636  -0.0892  0.6291  1.0000  -1.2117   0.0000   0.0000   0.0000   0.3533
   3.700   0.8385   0.01392   0.00636  -0.0890  0.6220  1.0000  -1.2299   0.0000   0.0000   0.0000   0.3515
   3.800   0.8492   0.01402   0.00640  -0.0888  0.6150  1.0000  -1.2494   0.0000   0.0000   0.0000   0.3499
   3.900   0.8587   0.01412   0.00652  -0.0884  0.6064  1.0000  -1.2684   0.0000   0.0000   0.0000   0.3482
   4.000   0.8691   0.01420   0.00655  -0.0882  0.5991  1.0000  -1.2888   0.0000   0.0000   0.0000   0.3466
   4.100   0.8800   0.01432   0.00659  -0.0880  0.5924  1.0000  -1.3099   0.0000   0.0000   0.0000   0.3450
   4.200   0.8892   0.01442   0.00672  -0.0876  0.5837  1.0000  -1.3288   0.0000   0.0000   0.0000   0.3435
   4.300   0.8994   0.01452   0.00679  -0.0874  0.5762  1.0000  -1.3491   0.0000   0.0000   0.0000   0.3420
   4.400   0.9104   0.01465   0.00682  -0.0872  0.5698  1.0000  -1.3721   0.0000   0.0000   0.0000   0.3405
   4.500   0.9195   0.01476   0.00698  -0.0868  0.5611  1.0000  -1.3939   0.0000   0.0000   0.0000   0.3391
   4.600   0.9294   0.01487   0.00712  -0.0865  0.5533  1.0000  -1.4173   0.0000   0.0000   0.0000   0.3376
   4.700   0.9402   0.01501   0.00716  -0.0864  0.5468  1.0000  -1.4422   0.0000   0.0000   0.0000   0.3362
   4.800   0.9493   0.01513   0.00733  -0.0860  0.5382  1.0000  -1.4643   0.0000   0.0000   0.0000   0.3349
   4.900   0.9590   0.01525   0.00743  -0.0857  0.5305  1.0000  -1.4880   0.0000   0.0000   0.0000   0.3335
   5.000   0.9696   0.01540   0.00750  -0.0855  0.5239  1.0000  -1.5172   0.0000   0.0000   0.0000   0.3322
   5.100   0.9790   0.01555   0.00767  -0.0852  0.5161  1.0000  -1.5440   0.0000   0.0000   0.0000   0.3310
   5.200   0.9885   0.01568   0.00781  -0.0849  0.5084  1.0000  -1.5715   0.0000   0.0000   0.0000   0.3297
   5.300   0.9987   0.01583   0.00789  -0.0847  0.5017  1.0000  -1.6049   0.0000   0.0000   0.0000   0.3285
   5.400   1.0083   0.01600   0.00805  -0.0844  0.4942  1.0000  -1.6379   0.0000   0.0000   0.0000   0.3273
   5.500   1.0176   0.01613   0.00821  -0.0840  0.4861  1.0000  -1.6704   0.0000   0.0000   0.0000   0.3261
   5.600   1.0274   0.01628   0.00831  -0.0837  0.4790  1.0000  -1.7046   0.0000   0.0000   0.0000   0.3249
   5.700   1.0372   0.01647   0.00846  -0.0835  0.4719  1.0000  -1.7385   0.0000   0.0000   0.0000   0.3237
   5.800   1.0462   0.01661   0.00864  -0.0831  0.4638  1.0000  -1.7711   0.0000   0.0000   0.0000   0.3226
   5.900   1.0558   0.01677   0.00876  -0.0828  0.4567  1.0000  -1.8053   0.0000   0.0000   0.0000   0.3214
   6.000   1.0658   0.01699   0.00896  -0.0826  0.4502  1.0000  -1.8405   0.0000   0.0000   0.0000   0.3204
   6.100   1.0746   0.01714   0.00918  -0.0822  0.4424  1.0000  -1.8730   0.0000   0.0000   0.0000   0.3193
   6.200   1.0839   0.01730   0.00933  -0.0819  0.4352  1.0000  -1.9120   0.0000   0.0000   0.0000   0.3182
   6.300   1.0940   0.01753   0.00946  -0.0817  0.4287  1.0000  -1.9545   0.0000   0.0000   0.0000   0.3172
   6.400   1.1025   0.01769   0.00969  -0.0813  0.4209  1.0000  -1.9931   0.0000   0.0000   0.0000   0.3161
   6.500   1.1114   0.01785   0.00987  -0.0809  0.4133  1.0000  -2.0332   0.0000   0.0000   0.0000   0.3150
   6.600   1.1210   0.01806   0.01000  -0.0806  0.4066  1.0000  -2.0754   0.0000   0.0000   0.0000   0.3140
   6.700   1.1299   0.01827   0.01023  -0.0802  0.3993  1.0000  -2.1156   0.0000   0.0000   0.0000   0.3130
   6.800   1.1384   0.01843   0.01044  -0.0798  0.3916  1.0000  -2.1555   0.0000   0.0000   0.0000   0.3120
   6.900   1.1475   0.01863   0.01059  -0.0794  0.3848  1.0000  -2.1973   0.0000   0.0000   0.0000   0.3110
   7.000   1.1567   0.01889   0.01081  -0.0791  0.3780  1.0000  -2.2394   0.0000   0.0000   0.0000   0.3100
   7.100   1.1649   0.01905   0.01105  -0.0787  0.3703  1.0000  -2.2855   0.0000   0.0000   0.0000   0.3090
   7.200   1.1735   0.01924   0.01122  -0.0782  0.3632  1.0000  -2.3337   0.0000   0.0000   0.0000   0.3080
   7.300   1.1829   0.01954   0.01141  -0.0780  0.3566  1.0000  -2.3845   0.0000   0.0000   0.0000   0.3071
   7.400   1.1906   0.01970   0.01168  -0.0774  0.3491  1.0000  -2.4300   0.0000   0.0000   0.0000   0.3061
   7.500   1.1988   0.01989   0.01189  -0.0770  0.3419  1.0000  -2.4778   0.0000   0.0000   0.0000   0.3052
   7.600   1.2077   0.02017   0.01213  -0.0766  0.3354  1.0000  -2.5283   0.0000   0.0000   0.0000   0.3043
   7.700   1.2157   0.02040   0.01241  -0.0762  0.3282  1.0000  -2.5822   0.0000   0.0000   0.0000   0.3033
   7.800   1.2234   0.02058   0.01265  -0.0756  0.3209  1.0000  -2.6363   0.0000   0.0000   0.0000   0.3024
   7.900   1.2315   0.02082   0.01283  -0.0752  0.3141  1.0000  -2.6927   0.0000   0.0000   0.0000   0.3014
   8.000   1.2396   0.02111   0.01310  -0.0747  0.3073  1.0000  -2.7602   0.0000   0.0000   0.0000   0.3006
   8.100   1.2469   0.02130   0.01337  -0.0742  0.2999  1.0000  -2.8441   0.0000   0.0000   0.0000   0.2996
   8.200   1.2544   0.02152   0.01359  -0.0736  0.2931  1.0000  -2.9313   0.0000   0.0000   0.0000   0.2987
   8.300   1.2627   0.02189   0.01383  -0.0732  0.2865  1.0000  -3.0237   0.0000   0.0000   0.0000   0.2978
   8.400   1.2694   0.02206   0.01415  -0.0726  0.2795  1.0000  -3.1071   0.0000   0.0000   0.0000   0.2969
   8.500   1.2763   0.02227   0.01439  -0.0719  0.2725  1.0000  -3.1938   0.0000   0.0000   0.0000   0.2959
   8.600   1.2836   0.02258   0.01462  -0.0714  0.2662  1.0000  -3.2840   0.0000   0.0000   0.0000   0.2950
   8.700   1.2908   0.02289   0.01496  -0.0709  0.2597  1.0000  -3.3725   0.0000   0.0000   0.0000   0.2942
   8.800   1.2976   0.02312   0.01528  -0.0702  0.2530  1.0000  -3.4596   0.0000   0.0000   0.0000   0.2932
   8.900   1.3042   0.02339   0.01555  -0.0696  0.2468  1.0000  -3.5479   0.0000   0.0000   0.0000   0.2923
   9.000   1.3115   0.02384   0.01587  -0.0691  0.2405  1.0000  -3.6412   0.0000   0.0000   0.0000   0.2915
   9.100   1.3174   0.02405   0.01622  -0.0683  0.2340  1.0000  -3.7246   0.0000   0.0000   0.0000   0.2905
   9.200   1.3232   0.02430   0.01652  -0.0676  0.2272  1.0000  -3.8221   0.0000   0.0000   0.0000   0.2896
   9.300   1.3287   0.02464   0.01680  -0.0668  0.2209  1.0000  -3.9233   0.0000   0.0000   0.0000   0.2887
   9.400   1.3345   0.02502   0.01719  -0.0661  0.2143  1.0000  -4.0238   0.0000   0.0000   0.0000   0.2878
   9.500   1.3394   0.02527   0.01759  -0.0652  0.2073  1.0000  -4.1143   0.0000   0.0000   0.0000   0.2868
   9.600   1.3439   0.02558   0.01788  -0.0643  0.2008  1.0000  -4.2092   0.0000   0.0000   0.0000   0.2858
   9.700   1.3488   0.02610   0.01829  -0.0636  0.1942  1.0000  -4.3074   0.0000   0.0000   0.0000   0.2849
   9.800   1.3532   0.02637   0.01870  -0.0626  0.1877  1.0000  -4.3996   0.0000   0.0000   0.0000   0.2839
   9.900   1.3571   0.02671   0.01908  -0.0617  0.1813  1.0000  -4.4920   0.0000   0.0000   0.0000   0.2829
  10.000   1.3606   0.02722   0.01949  -0.0607  0.1754  1.0000  -4.5832   0.0000   0.0000   0.0000   0.2819
  10.100   1.3648   0.02772   0.02002  -0.0598  0.1690  1.0000  -4.6741   0.0000   0.0000   0.0000   0.2810
  10.200   1.3674   0.02807   0.02046  -0.0586  0.1629  1.0000  -4.7575   0.0000   0.0000   0.0000   0.2799
  10.300   1.3692   0.02848   0.02086  -0.0573  0.1574  1.0000  -4.8378   0.0000   0.0000   0.0000   0.2787
  10.400   1.3720   0.02924   0.02146  -0.0564  0.1510  1.0000  -4.9241   0.0000   0.0000   0.0000   0.2778
  10.500   1.3738   0.02961   0.02196  -0.0551  0.1460  1.0000  -5.0004   0.0000   0.0000   0.0000   0.2767
  10.600   1.3754   0.03003   0.02244  -0.0539  0.1406  1.0000  -5.0780   0.0000   0.0000   0.0000   0.2756
  10.700   1.3765   0.03050   0.02291  -0.0527  0.1358  1.0000  -5.1549   0.0000   0.0000   0.0000   0.2745
  10.800   1.3780   0.03124   0.02353  -0.0517  0.1306  1.0000  -5.2334   0.0000   0.0000   0.0000   0.2736
  10.900   1.3804   0.03185   0.02420  -0.0507  0.1259  1.0000  -5.3131   0.0000   0.0000   0.0000   0.2727
  11.000   1.3822   0.03234   0.02478  -0.0496  0.1216  1.0000  -5.3904   0.0000   0.0000   0.0000   0.2717
  11.100   1.3838   0.03287   0.02536  -0.0486  0.1175  1.0000  -5.4684   0.0000   0.0000   0.0000   0.2707
  11.200   1.3852   0.03348   0.02596  -0.0476  0.1139  1.0000  -5.5460   0.0000   0.0000   0.0000   0.2698
  11.300   1.3877   0.03438   0.02676  -0.0468  0.1096  1.0000  -5.6283   0.0000   0.0000   0.0000   0.2690
  11.400   1.3913   0.03520   0.02762  -0.0461  0.1061  1.0000  -5.7128   0.0000   0.0000   0.0000   0.2683
  11.500   1.3930   0.03578   0.02832  -0.0452  0.1032  1.0000  -5.7877   0.0000   0.0000   0.0000   0.2674
  11.600   1.3947   0.03640   0.02901  -0.0443  0.1000  1.0000  -5.8642   0.0000   0.0000   0.0000   0.2666
  11.700   1.3960   0.03703   0.02968  -0.0434  0.0970  1.0000  -5.9407   0.0000   0.0000   0.0000   0.2657
  11.800   1.3967   0.03769   0.03036  -0.0426  0.0944  1.0000  -6.0152   0.0000   0.0000   0.0000   0.2649
  11.900   1.3977   0.03848   0.03112  -0.0418  0.0916  1.0000  -6.0914   0.0000   0.0000   0.0000   0.2642
  12.000   1.4039   0.03981   0.03235  -0.0415  0.0872  1.0000  -6.1901   0.0000   0.0000   0.0000   0.2637
  12.100   1.4041   0.04046   0.03314  -0.0406  0.0857  1.0000  -6.2552   0.0000   0.0000   0.0000   0.2629
  12.200   1.4050   0.04120   0.03400  -0.0398  0.0837  1.0000  -6.3230   0.0000   0.0000   0.0000   0.2622
  12.300   1.4065   0.04201   0.03490  -0.0391  0.0817  1.0000  -6.3933   0.0000   0.0000   0.0000   0.2615
  12.400   1.4080   0.04284   0.03580  -0.0385  0.0796  1.0000  -6.4645   0.0000   0.0000   0.0000   0.2608
  12.500   1.4093   0.04367   0.03669  -0.0378  0.0776  1.0000  -6.5357   0.0000   0.0000   0.0000   0.2601
  12.600   1.4103   0.04452   0.03758  -0.0372  0.0758  1.0000  -6.6070   0.0000   0.0000   0.0000   0.2595
  12.700   1.4112   0.04541   0.03848  -0.0366  0.0739  1.0000  -6.6787   0.0000   0.0000   0.0000   0.2589
  12.800   1.4128   0.04646   0.03959  -0.0362  0.0718  1.0000  -6.7562   0.0000   0.0000   0.0000   0.2584
  12.900   1.4194   0.04854   0.04166  -0.0360  0.0681  1.0000  -6.8352   0.0000   0.0000   0.0000   0.2580
  13.000   1.4175   0.04936   0.04260  -0.0353  0.0673  1.0000  -6.8834   0.0000   0.0000   0.0000   0.2574
  13.100   1.4156   0.05027   0.04363  -0.0347  0.0661  1.0000  -6.9301   0.0000   0.0000   0.0000   0.2568
  13.200   1.4136   0.05127   0.04474  -0.0341  0.0648  1.0000  -6.9742   0.0000   0.0000   0.0000   0.2562
  13.300   1.4114   0.05234   0.04591  -0.0337  0.0634  1.0000  -7.0159   0.0000   0.0000   0.0000   0.2558
  13.400   1.4092   0.05344   0.04710  -0.0333  0.0619  1.0000  -7.0586   0.0000   0.0000   0.0000   0.2553
  13.500   1.4074   0.05458   0.04831  -0.0329  0.0604  1.0000  -7.1028   0.0000   0.0000   0.0000   0.2549
  13.600   1.4056   0.05569   0.04947  -0.0326  0.0589  1.0000  -7.1502   0.0000   0.0000   0.0000   0.2545
  13.700   1.4037   0.05677   0.05059  -0.0324  0.0574  1.0000  -7.2014   0.0000   0.0000   0.0000   0.2542
  13.800   1.4017   0.05787   0.05169  -0.0323  0.0558  1.0000  -7.2551   0.0000   0.0000   0.0000   0.2540
  13.900   1.3994   0.05911   0.05293  -0.0322  0.0542  1.0000  -7.3053   0.0000   0.0000   0.0000   0.2538
  14.000   1.3976   0.06108   0.05489  -0.0321  0.0518  1.0000  -7.3351   0.0000   0.0000   0.0000   0.2535
  14.100   1.3925   0.06347   0.05738  -0.0320  0.0503  1.0000  -7.3221   0.0000   0.0000   0.0000   0.2534
  14.200   1.3882   0.06474   0.05875  -0.0321  0.0497  1.0000  -7.3480   0.0000   0.0000   0.0000   0.2533
  14.300   1.3839   0.06615   0.06027  -0.0323  0.0489  1.0000  -7.3702   0.0000   0.0000   0.0000   0.2533
  14.400   1.3796   0.06768   0.06190  -0.0326  0.0480  1.0000  -7.3888   0.0000   0.0000   0.0000   0.2534
  14.500   1.3753   0.06933   0.06364  -0.0329  0.0471  1.0000  -7.4034   0.0000   0.0000   0.0000   0.2535
  14.600   1.3705   0.07108   0.06549  -0.0333  0.0461  1.0000  -7.4131   0.0000   0.0000   0.0000   0.2537
  14.700   1.3657   0.07289   0.06738  -0.0338  0.0451  1.0000  -7.4216   0.0000   0.0000   0.0000   0.2539
  14.800   1.3611   0.07470   0.06928  -0.0343  0.0441  1.0000  -7.4319   0.0000   0.0000   0.0000   0.2542
  14.900   1.3567   0.07651   0.07115  -0.0349  0.0430  1.0000  -7.4457   0.0000   0.0000   0.0000   0.2545
  15.000   1.3527   0.07830   0.07299  -0.0356  0.0419  1.0000  -7.4640   0.0000   0.0000   0.0000   0.2549


