xflr5 v6.61

 Calculated polar for: SD7032-099-88

 1 1 Reynolds number fixed          Mach number fixed         

 xtrf =   1.000 (top)        1.000 (bottom)
 Mach =   0.000     Re =     0.425 e 6     Ncrit =   9.000

  alpha     CL        CD       CDp       Cm    Top Xtr Bot Xtr   Cpmin    Chinge    XCp    
 ------- -------- --------- --------- -------- ------- ------- -------- --------- ---------
 -10.000  -0.3152   0.10818   0.10566  -0.0378  1.0000  0.0173  -1.8813   0.0000   0.0000   0.0000   0.1203
  -9.700  -0.3228   0.10146   0.09901  -0.0389  1.0000  0.0178  -2.0391   0.0000   0.0000   0.0000   0.1201
  -9.600  -0.3236   0.09995   0.09751  -0.0390  1.0000  0.0179  -2.0466   0.0000   0.0000   0.0000   0.1202
  -9.500  -0.3237   0.09866   0.09623  -0.0390  1.0000  0.0180  -2.0425   0.0000   0.0000   0.0000   0.1203
  -9.400  -0.3231   0.09756   0.09514  -0.0388  1.0000  0.0181  -2.0234   0.0000   0.0000   0.0000   0.1207
  -9.300  -0.3227   0.09651   0.09411  -0.0387  1.0000  0.0182  -2.0054   0.0000   0.0000   0.0000   0.1212
  -9.200  -0.3226   0.09550   0.09311  -0.0385  1.0000  0.0183  -1.9889   0.0000   0.0000   0.0000   0.1219
  -9.100  -0.3228   0.09454   0.09216  -0.0382  1.0000  0.0184  -1.9743   0.0000   0.0000   0.0000   0.1230
  -9.000  -0.3235   0.09361   0.09126  -0.0378  1.0000  0.0185  -1.9618   0.0000   0.0000   0.0000   0.1245
  -8.900  -0.3247   0.09274   0.09040  -0.0374  1.0000  0.0186  -1.9516   0.0000   0.0000   0.0000   0.1264
  -8.800  -0.3264   0.09192   0.08959  -0.0368  1.0000  0.0187  -1.9428   0.0000   0.0000   0.0000   0.1290
  -8.700  -0.3287   0.09115   0.08885  -0.0361  1.0000  0.0187  -1.9358   0.0000   0.0000   0.0000   0.1321
  -8.600  -0.3316   0.09044   0.08815  -0.0353  1.0000  0.0188  -1.9313   0.0000   0.0000   0.0000   0.1357
  -8.500  -0.3351   0.08976   0.08750  -0.0344  1.0000  0.0188  -1.9292   0.0000   0.0000   0.0000   0.1397
  -8.400  -0.3391   0.08912   0.08688  -0.0335  1.0000  0.0189  -1.9291   0.0000   0.0000   0.0000   0.1440
  -8.300  -0.3435   0.08850   0.08628  -0.0324  1.0000  0.0189  -1.9307   0.0000   0.0000   0.0000   0.1484
  -8.200  -0.3481   0.08790   0.08570  -0.0314  1.0000  0.0190  -1.9337   0.0000   0.0000   0.0000   0.1528
  -8.100  -0.3473   0.08679   0.08460  -0.0318  0.9996  0.0191  -1.9299   0.0000   0.0000   0.0000   0.1515
  -8.000  -0.3406   0.08516   0.08297  -0.0337  0.9986  0.0193  -1.9176   0.0000   0.0000   0.0000   0.1441
  -7.900  -0.3339   0.08350   0.08131  -0.0357  0.9973  0.0194  -1.9080   0.0000   0.0000   0.0000   0.1360
  -7.800  -0.3271   0.08181   0.07962  -0.0379  0.9959  0.0196  -1.9011   0.0000   0.0000   0.0000   0.1273
  -7.700  -0.3202   0.08008   0.07790  -0.0402  0.9943  0.0198  -1.8968   0.0000   0.0000   0.0000   0.1176
  -7.600  -0.3131   0.07830   0.07612  -0.0426  0.9926  0.0200  -1.8952   0.0000   0.0000   0.0000   0.1069
  -7.500  -0.3057   0.07645   0.07427  -0.0453  0.9910  0.0202  -1.8963   0.0000   0.0000   0.0000   0.0946
  -7.400  -0.2998   0.07468   0.07250  -0.0477  0.9890  0.0203  -1.9018   0.0000   0.0000   0.0000   0.0837
  -7.300  -0.2958   0.07298   0.07078  -0.0498  0.9859  0.0205  -1.9119   0.0000   0.0000   0.0000   0.0746
  -7.200  -0.2902   0.07108   0.06889  -0.0525  0.9828  0.0207  -1.9233   0.0000   0.0000   0.0000   0.0620
  -7.100  -0.2816   0.06878   0.06659  -0.0563  0.9802  0.0209  -1.9358   0.0000   0.0000   0.0000   0.0430
  -7.000  -0.2718   0.06630   0.06411  -0.0606  0.9779  0.0212  -1.9530   0.0000   0.0000   0.0000   0.0196
  -6.900  -0.2612   0.06361   0.06140  -0.0656  0.9760  0.0214  -1.9763   0.0000   0.0000   0.0000  -0.0086
  -6.800  -0.2494   0.06066   0.05843  -0.0711  0.9744  0.0217  -2.0065   0.0000   0.0000   0.0000  -0.0427
  -6.700  -0.2367   0.05755   0.05528  -0.0767  0.9730  0.0221  -2.0419   0.0000   0.0000   0.0000  -0.0820
  -6.600  -0.2232   0.05434   0.05203  -0.0822  0.9718  0.0224  -2.0822   0.0000   0.0000   0.0000  -0.1265
  -6.500  -0.2094   0.05113   0.04875  -0.0874  0.9707  0.0229  -2.1264   0.0000   0.0000   0.0000  -0.1762
  -6.400  -0.2042   0.04895   0.04651  -0.0893  0.9666  0.0232  -2.1637   0.0000   0.0000   0.0000  -0.1961
  -6.300  -0.1957   0.04650   0.04398  -0.0919  0.9633  0.0236  -2.2048   0.0000   0.0000   0.0000  -0.2287
  -6.200  -0.1854   0.04402   0.04141  -0.0944  0.9606  0.0242  -2.2487   0.0000   0.0000   0.0000  -0.2693
  -6.100  -0.1735   0.04194   0.03922  -0.0966  0.9583  0.0250  -2.2788   0.0000   0.0000   0.0000  -0.3173
  -6.000  -0.1567   0.04149   0.03866  -0.0977  0.9568  0.0263  -2.2536   0.0000   0.0000   0.0000  -0.3849
  -5.900  -0.1437   0.04039   0.03744  -0.0992  0.9548  0.0267  -2.2454   0.0000   0.0000   0.0000  -0.4528
  -5.800  -0.1325   0.03886   0.03578  -0.1007  0.9529  0.0268  -2.2488   0.0000   0.0000   0.0000  -0.5228
  -5.700  -0.1219   0.03733   0.03412  -0.1019  0.9509  0.0268  -2.2517   0.0000   0.0000   0.0000  -0.5999
  -5.600  -0.1116   0.03585   0.03251  -0.1029  0.9489  0.0269  -2.2530   0.0000   0.0000   0.0000  -0.6875
  -5.400  -0.1160   0.02360   0.01926  -0.1033  0.9379  0.0182  -3.0360   0.0000   0.0000   0.0000  -0.6568
  -5.300  -0.1038   0.02367   0.01941  -0.1031  0.9358  0.0167  -2.9513   0.0000   0.0000   0.0000  -0.7605
  -5.200  -0.0963   0.02126   0.01673  -0.1032  0.9329  0.0159  -3.0530   0.0000   0.0000   0.0000  -0.8407
  -5.100  -0.0867   0.01979   0.01505  -0.1032  0.9305  0.0155  -3.0929   0.0000   0.0000   0.0000  -0.9612
  -5.000  -0.0766   0.01857   0.01364  -0.1031  0.9283  0.0152  -3.1176   0.0000   0.0000   0.0000  -1.1187
  -4.900  -0.0662   0.01756   0.01246  -0.1029  0.9263  0.0151  -3.1291   0.0000   0.0000   0.0000  -1.3299
  -4.800  -0.0560   0.01673   0.01148  -0.1027  0.9239  0.0152  -3.1287   0.0000   0.0000   0.0000  -1.6137
  -4.700  -0.0469   0.01604   0.01068  -0.1022  0.9209  0.0153  -3.1193   0.0000   0.0000   0.0000  -1.9640
  -4.600  -0.0372   0.01544   0.00999  -0.1018  0.9178  0.0156  -3.1007   0.0000   0.0000   0.0000  -2.5276
  -4.500  -0.0271   0.01495   0.00941  -0.1015  0.9148  0.0160  -3.0718   0.0000   0.0000   0.0000  -3.5551
  -4.400  -0.0165   0.01461   0.00901  -0.1012  0.9120  0.0165  -3.0272   0.0000   0.0000   0.0000  -5.9689
  -4.300  -0.0056   0.01451   0.00885  -0.1010  0.9094  0.0170  -2.9561   0.0000   0.0000   0.0000  -18.1285
  -4.200   0.0036   0.01319   0.00737  -0.1006  0.9069  0.0184  -3.0079   0.0000   0.0000   0.0000  28.2270
  -4.100   0.0137   0.01264   0.00679  -0.1003  0.9045  0.0196  -2.9552   0.0000   0.0000   0.0000   7.6894
  -4.000   0.0244   0.01241   0.00654  -0.1002  0.9021  0.0206  -2.8694   0.0000   0.0000   0.0000   4.4169
  -3.900   0.0348   0.01221   0.00633  -0.1000  0.8994  0.0217  -2.7862   0.0000   0.0000   0.0000   3.1595
  -3.800   0.0450   0.01201   0.00610  -0.0997  0.8962  0.0228  -2.7103   0.0000   0.0000   0.0000   2.4938
  -3.700   0.0555   0.01187   0.00595  -0.0995  0.8929  0.0243  -2.6204   0.0000   0.0000   0.0000   2.0671
  -3.600   0.0662   0.01185   0.00592  -0.0993  0.8896  0.0258  -2.5183   0.0000   0.0000   0.0000   1.7696
  -3.500   0.0772   0.01194   0.00601  -0.0991  0.8865  0.0268  -2.4083   0.0000   0.0000   0.0000   1.5499
  -3.400   0.0867   0.01104   0.00500  -0.0988  0.8836  0.0297  -2.3912   0.0000   0.0000   0.0000   1.4030
  -3.300   0.0973   0.01071   0.00464  -0.0986  0.8809  0.0317  -2.3192   0.0000   0.0000   0.0000   1.2749
  -3.200   0.1081   0.01052   0.00442  -0.0984  0.8783  0.0333  -2.2335   0.0000   0.0000   0.0000   1.1699
  -3.100   0.1188   0.01035   0.00424  -0.0982  0.8751  0.0350  -2.1472   0.0000   0.0000   0.0000   1.0855
  -3.000   0.1294   0.01022   0.00410  -0.0981  0.8714  0.0370  -2.0583   0.0000   0.0000   0.0000   1.0153
  -2.900   0.1402   0.01012   0.00398  -0.0979  0.8677  0.0391  -1.9667   0.0000   0.0000   0.0000   0.9552
  -2.800   0.1510   0.01002   0.00386  -0.0978  0.8642  0.0405  -1.8763   0.0000   0.0000   0.0000   0.9032
  -2.700   0.1618   0.00986   0.00366  -0.0976  0.8608  0.0418  -1.7935   0.0000   0.0000   0.0000   0.8580
  -2.600   0.1728   0.00957   0.00330  -0.0974  0.8576  0.0457  -1.7226   0.0000   0.0000   0.0000   0.8182
  -2.500   0.1838   0.00940   0.00311  -0.0972  0.8545  0.0505  -1.6404   0.0000   0.0000   0.0000   0.7829
  -2.400   0.1947   0.00927   0.00299  -0.0971  0.8508  0.0567  -1.5567   0.0000   0.0000   0.0000   0.7523
  -2.300   0.2055   0.00902   0.00282  -0.0970  0.8468  0.0815  -1.4781   0.0000   0.0000   0.0000   0.7252
  -2.200   0.2160   0.00869   0.00272  -0.0970  0.8426  0.1395  -1.3969   0.0000   0.0000   0.0000   0.7020
  -2.100   0.2267   0.00846   0.00264  -0.0970  0.8387  0.1871  -1.3191   0.0000   0.0000   0.0000   0.6804
  -2.000   0.2374   0.00828   0.00256  -0.0969  0.8349  0.2289  -1.2526   0.0000   0.0000   0.0000   0.6605
  -1.900   0.2483   0.00812   0.00248  -0.0969  0.8313  0.2688  -1.1857   0.0000   0.0000   0.0000   0.6421
  -1.800   0.2590   0.00795   0.00244  -0.0968  0.8272  0.3086  -1.1197   0.0000   0.0000   0.0000   0.6255
  -1.700   0.2697   0.00779   0.00241  -0.0968  0.8226  0.3504  -1.0545   0.0000   0.0000   0.0000   0.6103
  -1.600   0.2804   0.00763   0.00237  -0.0968  0.8180  0.3977  -0.9900   0.0000   0.0000   0.0000   0.5963
  -1.500   0.2910   0.00747   0.00234  -0.0966  0.8135  0.4449  -0.9262   0.0000   0.0000   0.0000   0.5831
  -1.400   0.3017   0.00734   0.00230  -0.0965  0.8093  0.4884  -0.8630   0.0000   0.0000   0.0000   0.5707
  -1.300   0.3123   0.00722   0.00228  -0.0964  0.8051  0.5296  -0.8007   0.0000   0.0000   0.0000   0.5591
  -1.200   0.3227   0.00709   0.00228  -0.0962  0.8001  0.5737  -0.7398   0.0000   0.0000   0.0000   0.5485
  -1.100   0.3331   0.00697   0.00228  -0.0960  0.7949  0.6157  -0.6797   0.0000   0.0000   0.0000   0.5384
  -1.000   0.3432   0.00686   0.00226  -0.0956  0.7899  0.6572  -0.6323   0.0000   0.0000   0.0000   0.5288
  -0.900   0.3532   0.00678   0.00225  -0.0953  0.7853  0.6932  -0.6091   0.0000   0.0000   0.0000   0.5196
  -0.800   0.3632   0.00671   0.00226  -0.0949  0.7805  0.7270  -0.6187   0.0000   0.0000   0.0000   0.5110
  -0.700   0.3731   0.00664   0.00227  -0.0945  0.7750  0.7571  -0.6283   0.0000   0.0000   0.0000   0.5029
  -0.600   0.3827   0.00659   0.00226  -0.0940  0.7695  0.7828  -0.6378   0.0000   0.0000   0.0000   0.4951
  -0.500   0.3924   0.00655   0.00225  -0.0935  0.7642  0.8053  -0.6473   0.0000   0.0000   0.0000   0.4876
  -0.400   0.4017   0.00653   0.00223  -0.0929  0.7592  0.8271  -0.6567   0.0000   0.0000   0.0000   0.4805
  -0.300   0.4107   0.00647   0.00223  -0.0922  0.7536  0.8498  -0.6658   0.0000   0.0000   0.0000   0.4737
  -0.200   0.4192   0.00643   0.00222  -0.0914  0.7477  0.8731  -0.6747   0.0000   0.0000   0.0000   0.4672
  -0.100   0.4274   0.00639   0.00219  -0.0905  0.7420  0.8976  -0.6835   0.0000   0.0000   0.0000   0.4608
   0.100   0.4500   0.00630   0.00211  -0.0901  0.7313  0.9543  -0.7064   0.0000   0.0000   0.0000   0.4490
   0.200   0.4683   0.00627   0.00205  -0.0916  0.7248  0.9875  -0.7221   0.0000   0.0000   0.0000   0.4442
   0.300   0.4808   0.00630   0.00201  -0.0919  0.7184  1.0000  -0.7343   0.0000   0.0000   0.0000   0.4395
   0.500   0.5028   0.00638   0.00199  -0.0918  0.7061  1.0000  -0.7568   0.0000   0.0000   0.0000   0.4308
   0.600   0.5138   0.00642   0.00198  -0.0917  0.6995  1.0000  -0.7692   0.0000   0.0000   0.0000   0.4267
   0.700   0.5246   0.00647   0.00197  -0.0916  0.6932  1.0000  -0.7815   0.0000   0.0000   0.0000   0.4227
   0.800   0.5355   0.00652   0.00197  -0.0916  0.6875  1.0000  -0.7938   0.0000   0.0000   0.0000   0.4189
   0.900   0.5466   0.00655   0.00198  -0.0915  0.6812  1.0000  -0.8069   0.0000   0.0000   0.0000   0.4153
   1.000   0.5576   0.00660   0.00198  -0.0915  0.6745  1.0000  -0.8206   0.0000   0.0000   0.0000   0.4119
   1.100   0.5683   0.00666   0.00198  -0.0914  0.6678  1.0000  -0.8342   0.0000   0.0000   0.0000   0.4085
   1.200   0.5792   0.00671   0.00199  -0.0913  0.6615  1.0000  -0.8479   0.0000   0.0000   0.0000   0.4052
   1.300   0.5902   0.00675   0.00200  -0.0912  0.6544  1.0000  -0.8617   0.0000   0.0000   0.0000   0.4021
   1.400   0.6009   0.00681   0.00201  -0.0911  0.6474  1.0000  -0.8754   0.0000   0.0000   0.0000   0.3991
   1.500   0.6116   0.00689   0.00202  -0.0910  0.6408  1.0000  -0.8891   0.0000   0.0000   0.0000   0.3962
   1.600   0.6226   0.00692   0.00205  -0.0910  0.6341  1.0000  -0.9045   0.0000   0.0000   0.0000   0.3934
   1.700   0.6334   0.00698   0.00207  -0.0909  0.6269  1.0000  -0.9199   0.0000   0.0000   0.0000   0.3907
   1.800   0.6440   0.00706   0.00208  -0.0908  0.6199  1.0000  -0.9351   0.0000   0.0000   0.0000   0.3880
   1.900   0.6548   0.00711   0.00211  -0.0907  0.6131  1.0000  -0.9505   0.0000   0.0000   0.0000   0.3855
   2.000   0.6656   0.00717   0.00213  -0.0906  0.6056  1.0000  -0.9660   0.0000   0.0000   0.0000   0.3830
   2.100   0.6762   0.00725   0.00215  -0.0905  0.5981  1.0000  -0.9813   0.0000   0.0000   0.0000   0.3806
   2.200   0.6868   0.00732   0.00218  -0.0904  0.5912  1.0000  -0.9968   0.0000   0.0000   0.0000   0.3783
   2.300   0.6977   0.00737   0.00221  -0.0903  0.5839  1.0000  -1.0124   0.0000   0.0000   0.0000   0.3761
   2.400   0.7082   0.00745   0.00224  -0.0902  0.5763  1.0000  -1.0279   0.0000   0.0000   0.0000   0.3739
   2.500   0.7187   0.00754   0.00227  -0.0901  0.5694  1.0000  -1.0434   0.0000   0.0000   0.0000   0.3717
   2.600   0.7296   0.00759   0.00231  -0.0900  0.5625  1.0000  -1.0592   0.0000   0.0000   0.0000   0.3697
   2.700   0.7402   0.00766   0.00235  -0.0899  0.5553  1.0000  -1.0757   0.0000   0.0000   0.0000   0.3677
   2.800   0.7506   0.00775   0.00239  -0.0898  0.5482  1.0000  -1.0930   0.0000   0.0000   0.0000   0.3657
   2.900   0.7613   0.00782   0.00243  -0.0897  0.5414  1.0000  -1.1108   0.0000   0.0000   0.0000   0.3638
   3.000   0.7720   0.00788   0.00247  -0.0896  0.5338  1.0000  -1.1285   0.0000   0.0000   0.0000   0.3620
   3.100   0.7823   0.00798   0.00254  -0.0894  0.5262  1.0000  -1.1460   0.0000   0.0000   0.0000   0.3602
   3.200   0.7928   0.00806   0.00258  -0.0893  0.5194  1.0000  -1.1637   0.0000   0.0000   0.0000   0.3584
   3.300   0.8035   0.00813   0.00263  -0.0893  0.5123  1.0000  -1.1817   0.0000   0.0000   0.0000   0.3567
   3.400   0.8139   0.00822   0.00268  -0.0891  0.5053  1.0000  -1.1994   0.0000   0.0000   0.0000   0.3550
   3.500   0.8241   0.00833   0.00274  -0.0890  0.4987  1.0000  -1.2170   0.0000   0.0000   0.0000   0.3534
   3.600   0.8350   0.00838   0.00279  -0.0889  0.4925  1.0000  -1.2353   0.0000   0.0000   0.0000   0.3518
   3.700   0.8455   0.00846   0.00285  -0.0888  0.4857  1.0000  -1.2533   0.0000   0.0000   0.0000   0.3503
   3.800   0.8557   0.00857   0.00291  -0.0886  0.4787  1.0000  -1.2728   0.0000   0.0000   0.0000   0.3487
   3.900   0.8661   0.00866   0.00297  -0.0885  0.4722  1.0000  -1.2932   0.0000   0.0000   0.0000   0.3472
   4.000   0.8767   0.00873   0.00303  -0.0884  0.4650  1.0000  -1.3139   0.0000   0.0000   0.0000   0.3458
   4.100   0.8869   0.00883   0.00310  -0.0883  0.4575  1.0000  -1.3343   0.0000   0.0000   0.0000   0.3444
   4.200   0.8969   0.00895   0.00317  -0.0881  0.4505  1.0000  -1.3546   0.0000   0.0000   0.0000   0.3429
   4.300   0.9076   0.00902   0.00323  -0.0880  0.4438  1.0000  -1.3756   0.0000   0.0000   0.0000   0.3416
   4.400   0.9178   0.00911   0.00330  -0.0879  0.4368  1.0000  -1.3994   0.0000   0.0000   0.0000   0.3403
   4.500   0.9278   0.00924   0.00341  -0.0877  0.4302  1.0000  -1.4230   0.0000   0.0000   0.0000   0.3389
   4.600   0.9383   0.00932   0.00349  -0.0876  0.4244  1.0000  -1.4472   0.0000   0.0000   0.0000   0.3377
   4.700   0.9487   0.00940   0.00356  -0.0875  0.4181  1.0000  -1.4716   0.0000   0.0000   0.0000   0.3364
   4.800   0.9589   0.00951   0.00365  -0.0873  0.4114  1.0000  -1.4957   0.0000   0.0000   0.0000   0.3352
   4.900   0.9686   0.00966   0.00373  -0.0871  0.4046  1.0000  -1.5213   0.0000   0.0000   0.0000   0.3339
   5.000   0.9792   0.00973   0.00381  -0.0870  0.3985  1.0000  -1.5505   0.0000   0.0000   0.0000   0.3327
   5.100   0.9893   0.00982   0.00390  -0.0869  0.3914  1.0000  -1.5805   0.0000   0.0000   0.0000   0.3316
   5.200   0.9991   0.00996   0.00399  -0.0867  0.3843  1.0000  -1.6139   0.0000   0.0000   0.0000   0.3304
   5.300   1.0091   0.01007   0.00408  -0.0865  0.3780  1.0000  -1.6481   0.0000   0.0000   0.0000   0.3292
   5.400   1.0195   0.01016   0.00417  -0.0864  0.3718  1.0000  -1.6831   0.0000   0.0000   0.0000   0.3281
   5.500   1.0294   0.01028   0.00426  -0.0862  0.3651  1.0000  -1.7175   0.0000   0.0000   0.0000   0.3270
   5.600   1.0388   0.01044   0.00437  -0.0860  0.3582  1.0000  -1.7513   0.0000   0.0000   0.0000   0.3259
   5.700   1.0492   0.01052   0.00446  -0.0858  0.3523  1.0000  -1.7868   0.0000   0.0000   0.0000   0.3249
   5.800   1.0592   0.01063   0.00456  -0.0857  0.3454  1.0000  -1.8221   0.0000   0.0000   0.0000   0.3238
   5.900   1.0688   0.01077   0.00469  -0.0854  0.3386  1.0000  -1.8567   0.0000   0.0000   0.0000   0.3228
   6.000   1.0784   0.01092   0.00481  -0.0852  0.3324  1.0000  -1.8940   0.0000   0.0000   0.0000   0.3217
   6.100   1.0887   0.01100   0.00491  -0.0851  0.3269  1.0000  -1.9368   0.0000   0.0000   0.0000   0.3207
   6.200   1.0985   0.01112   0.00502  -0.0849  0.3204  1.0000  -1.9789   0.0000   0.0000   0.0000   0.3197
   6.300   1.1077   0.01129   0.00514  -0.0846  0.3135  1.0000  -2.0201   0.0000   0.0000   0.0000   0.3187
   6.400   1.1175   0.01142   0.00525  -0.0844  0.3071  1.0000  -2.0626   0.0000   0.0000   0.0000   0.3178
   6.500   1.1273   0.01153   0.00536  -0.0843  0.3001  1.0000  -2.1058   0.0000   0.0000   0.0000   0.3168
   6.600   1.1365   0.01169   0.00549  -0.0840  0.2926  1.0000  -2.1478   0.0000   0.0000   0.0000   0.3158
   6.700   1.1457   0.01186   0.00562  -0.0837  0.2858  1.0000  -2.1898   0.0000   0.0000   0.0000   0.3149
   6.800   1.1557   0.01196   0.00574  -0.0835  0.2797  1.0000  -2.2341   0.0000   0.0000   0.0000   0.3140
   6.900   1.1651   0.01211   0.00587  -0.0833  0.2730  1.0000  -2.2789   0.0000   0.0000   0.0000   0.3131
   7.000   1.1740   0.01229   0.00601  -0.0830  0.2666  1.0000  -2.3283   0.0000   0.0000   0.0000   0.3121
   7.100   1.1835   0.01243   0.00615  -0.0828  0.2613  1.0000  -2.3795   0.0000   0.0000   0.0000   0.3112
   7.200   1.1933   0.01254   0.00627  -0.0826  0.2559  1.0000  -2.4318   0.0000   0.0000   0.0000   0.3104
   7.300   1.2025   0.01270   0.00641  -0.0823  0.2497  1.0000  -2.4850   0.0000   0.0000   0.0000   0.3095
   7.400   1.2111   0.01290   0.00660  -0.0819  0.2430  1.0000  -2.5421   0.0000   0.0000   0.0000   0.3086
   7.500   1.2205   0.01304   0.00675  -0.0817  0.2374  1.0000  -2.6022   0.0000   0.0000   0.0000   0.3077
   7.600   1.2299   0.01318   0.00688  -0.0814  0.2310  1.0000  -2.6629   0.0000   0.0000   0.0000   0.3069
   7.700   1.2385   0.01337   0.00705  -0.0811  0.2242  1.0000  -2.7216   0.0000   0.0000   0.0000   0.3060
   7.800   1.2467   0.01359   0.00723  -0.0807  0.2175  1.0000  -2.7793   0.0000   0.0000   0.0000   0.3051
   7.900   1.2564   0.01370   0.00737  -0.0805  0.2127  1.0000  -2.8653   0.0000   0.0000   0.0000   0.3043
   8.000   1.2654   0.01386   0.00752  -0.0802  0.2071  1.0000  -2.9609   0.0000   0.0000   0.0000   0.3035
   8.100   1.2738   0.01406   0.00770  -0.0798  0.2012  1.0000  -3.0543   0.0000   0.0000   0.0000   0.3026
   8.200   1.2817   0.01430   0.00790  -0.0794  0.1950  1.0000  -3.1464   0.0000   0.0000   0.0000   0.3017
   8.300   1.2911   0.01442   0.00805  -0.0791  0.1908  1.0000  -3.2536   0.0000   0.0000   0.0000   0.3010
   8.400   1.2999   0.01459   0.00822  -0.0788  0.1854  1.0000  -3.3707   0.0000   0.0000   0.0000   0.3001
   8.500   1.3079   0.01481   0.00842  -0.0784  0.1794  1.0000  -3.4844   0.0000   0.0000   0.0000   0.2993
   8.600   1.3152   0.01508   0.00864  -0.0778  0.1727  1.0000  -3.5951   0.0000   0.0000   0.0000   0.2984
   8.700   1.3244   0.01521   0.00880  -0.0776  0.1682  1.0000  -3.7188   0.0000   0.0000   0.0000   0.2977
   8.800   1.3326   0.01540   0.00899  -0.0772  0.1623  1.0000  -3.8385   0.0000   0.0000   0.0000   0.2969
   8.900   1.3399   0.01566   0.00921  -0.0766  0.1560  1.0000  -3.9532   0.0000   0.0000   0.0000   0.2960
   9.000   1.3472   0.01591   0.00944  -0.0761  0.1498  1.0000  -4.0689   0.0000   0.0000   0.0000   0.2952
   9.100   1.3558   0.01607   0.00963  -0.0758  0.1452  1.0000  -4.1948   0.0000   0.0000   0.0000   0.2944
   9.200   1.3634   0.01630   0.00987  -0.0753  0.1391  1.0000  -4.3096   0.0000   0.0000   0.0000   0.2936
   9.300   1.3697   0.01660   0.01013  -0.0746  0.1324  1.0000  -4.4221   0.0000   0.0000   0.0000   0.2927
   9.400   1.3771   0.01683   0.01036  -0.0741  0.1268  1.0000  -4.5427   0.0000   0.0000   0.0000   0.2919
   9.500   1.3847   0.01704   0.01057  -0.0736  0.1211  1.0000  -4.6664   0.0000   0.0000   0.0000   0.2911
   9.600   1.3909   0.01734   0.01083  -0.0729  0.1145  1.0000  -4.7822   0.0000   0.0000   0.0000   0.2902
   9.700   1.3964   0.01768   0.01114  -0.0722  0.1076  1.0000  -4.8929   0.0000   0.0000   0.0000   0.2893
   9.800   1.4037   0.01789   0.01137  -0.0716  0.1032  1.0000  -5.0180   0.0000   0.0000   0.0000   0.2885
   9.900   1.4096   0.01818   0.01163  -0.0709  0.0974  1.0000  -5.1344   0.0000   0.0000   0.0000   0.2876
  10.000   1.4135   0.01855   0.01195  -0.0699  0.0910  1.0000  -5.2376   0.0000   0.0000   0.0000   0.2866
  10.100   1.4183   0.01884   0.01225  -0.0689  0.0861  1.0000  -5.3473   0.0000   0.0000   0.0000   0.2856
  10.200   1.4235   0.01911   0.01252  -0.0681  0.0820  1.0000  -5.4615   0.0000   0.0000   0.0000   0.2847
  10.300   1.4274   0.01944   0.01282  -0.0670  0.0774  1.0000  -5.5667   0.0000   0.0000   0.0000   0.2837
  10.400   1.4301   0.01985   0.01319  -0.0658  0.0723  1.0000  -5.6635   0.0000   0.0000   0.0000   0.2826
  10.500   1.4331   0.02024   0.01358  -0.0647  0.0680  1.0000  -5.7612   0.0000   0.0000   0.0000   0.2815
  10.600   1.4389   0.02047   0.01384  -0.0639  0.0658  1.0000  -5.8838   0.0000   0.0000   0.0000   0.2807
  10.700   1.4436   0.02076   0.01415  -0.0631  0.0630  1.0000  -5.9983   0.0000   0.0000   0.0000   0.2798
  10.800   1.4473   0.02112   0.01449  -0.0621  0.0599  1.0000  -6.1063   0.0000   0.0000   0.0000   0.2788
  10.900   1.4501   0.02154   0.01488  -0.0610  0.0566  1.0000  -6.2070   0.0000   0.0000   0.0000   0.2779
  11.000   1.4517   0.02204   0.01537  -0.0598  0.0529  1.0000  -6.2963   0.0000   0.0000   0.0000   0.2768
  11.100   1.4541   0.02249   0.01584  -0.0587  0.0504  1.0000  -6.3917   0.0000   0.0000   0.0000   0.2758
  11.200   1.4603   0.02271   0.01610  -0.0581  0.0492  1.0000  -6.5240   0.0000   0.0000   0.0000   0.2751
  11.300   1.4657   0.02298   0.01641  -0.0575  0.0476  1.0000  -6.6494   0.0000   0.0000   0.0000   0.2743
  11.400   1.4700   0.02332   0.01676  -0.0567  0.0456  1.0000  -6.7675   0.0000   0.0000   0.0000   0.2735
  11.500   1.4737   0.02372   0.01715  -0.0559  0.0435  1.0000  -6.8800   0.0000   0.0000   0.0000   0.2727
  11.600   1.4765   0.02417   0.01759  -0.0550  0.0414  1.0000  -6.9858   0.0000   0.0000   0.0000   0.2719
  11.700   1.4784   0.02469   0.01810  -0.0540  0.0391  1.0000  -7.0836   0.0000   0.0000   0.0000   0.2710
  11.800   1.4793   0.02528   0.01875  -0.0529  0.0368  1.0000  -7.1718   0.0000   0.0000   0.0000   0.2701
  11.900   1.4800   0.02590   0.01940  -0.0518  0.0350  1.0000  -7.2565   0.0000   0.0000   0.0000   0.2692
  12.000   1.4861   0.02615   0.01969  -0.0513  0.0344  1.0000  -7.3949   0.0000   0.0000   0.0000   0.2685
  12.100   1.4912   0.02647   0.02005  -0.0508  0.0335  1.0000  -7.5251   0.0000   0.0000   0.0000   0.2679
  12.200   1.4958   0.02684   0.02046  -0.0502  0.0325  1.0000  -7.6493   0.0000   0.0000   0.0000   0.2672
  12.300   1.4996   0.02727   0.02091  -0.0495  0.0313  1.0000  -7.7672   0.0000   0.0000   0.0000   0.2665
  12.400   1.5026   0.02775   0.02142  -0.0488  0.0301  1.0000  -7.8779   0.0000   0.0000   0.0000   0.2658
  12.500   1.5051   0.02829   0.02197  -0.0481  0.0289  1.0000  -7.9840   0.0000   0.0000   0.0000   0.2651
  12.600   1.5071   0.02887   0.02256  -0.0474  0.0276  1.0000  -8.0858   0.0000   0.0000   0.0000   0.2643
  12.700   1.5083   0.02953   0.02322  -0.0466  0.0262  1.0000  -8.1793   0.0000   0.0000   0.0000   0.2636
  12.800   1.5086   0.03027   0.02397  -0.0458  0.0246  1.0000  -8.2621   0.0000   0.0000   0.0000   0.2629
  12.900   1.5075   0.03114   0.02489  -0.0449  0.0231  1.0000  -8.3284   0.0000   0.0000   0.0000   0.2622
  13.000   1.5111   0.03164   0.02542  -0.0444  0.0224  1.0000  -8.4442   0.0000   0.0000   0.0000   0.2616
  13.100   1.5154   0.03210   0.02592  -0.0440  0.0216  1.0000  -8.5667   0.0000   0.0000   0.0000   0.2610
  13.200   1.5187   0.03264   0.02650  -0.0435  0.0205  1.0000  -8.6795   0.0000   0.0000   0.0000   0.2604
  13.300   1.5205   0.03332   0.02720  -0.0430  0.0191  1.0000  -8.7770   0.0000   0.0000   0.0000   0.2599
  13.400   1.5206   0.03415   0.02803  -0.0424  0.0176  1.0000  -8.8578   0.0000   0.0000   0.0000   0.2593
  13.500   1.5188   0.03519   0.02905  -0.0418  0.0159  1.0000  -8.9164   0.0000   0.0000   0.0000   0.2587
  13.600   1.5152   0.03641   0.03030  -0.0411  0.0141  1.0000  -8.9469   0.0000   0.0000   0.0000   0.2581
  13.700   1.5166   0.03720   0.03114  -0.0407  0.0129  1.0000  -9.0288   0.0000   0.0000   0.0000   0.2577
  13.800   1.5152   0.03828   0.03223  -0.0403  0.0116  1.0000  -9.0821   0.0000   0.0000   0.0000   0.2572
  13.900   1.5121   0.03955   0.03350  -0.0398  0.0104  1.0000  -9.1197   0.0000   0.0000   0.0000   0.2567
  14.000   1.5064   0.04115   0.03513  -0.0394  0.0093  1.0000  -9.1193   0.0000   0.0000   0.0000   0.2563
  14.100   1.4992   0.04295   0.03699  -0.0390  0.0085  1.0000  -9.0953   0.0000   0.0000   0.0000   0.2560
  14.200   1.4992   0.04401   0.03811  -0.0388  0.0082  1.0000  -9.1600   0.0000   0.0000   0.0000   0.2557
  14.300   1.4980   0.04522   0.03937  -0.0387  0.0079  1.0000  -9.2122   0.0000   0.0000   0.0000   0.2554
  14.400   1.4963   0.04652   0.04073  -0.0386  0.0075  1.0000  -9.2592   0.0000   0.0000   0.0000   0.2552
  14.500   1.4944   0.04787   0.04213  -0.0386  0.0072  1.0000  -9.3053   0.0000   0.0000   0.0000   0.2550
  14.600   1.4923   0.04928   0.04359  -0.0386  0.0070  1.0000  -9.3498   0.0000   0.0000   0.0000   0.2548
  14.700   1.4900   0.05074   0.04511  -0.0387  0.0067  1.0000  -9.3925   0.0000   0.0000   0.0000   0.2547
  14.800   1.4872   0.05231   0.04672  -0.0388  0.0065  1.0000  -9.4303   0.0000   0.0000   0.0000   0.2546
  14.900   1.4842   0.05395   0.04841  -0.0391  0.0063  1.0000  -9.4641   0.0000   0.0000   0.0000   0.2546
  15.000   1.4806   0.05569   0.05020  -0.0394  0.0061  1.0000  -9.4913   0.0000   0.0000   0.0000   0.2547


