xflr5 v6.61

 Calculated polar for: SD7032-099-88

 1 1 Reynolds number fixed          Mach number fixed         

 xtrf =   1.000 (top)        1.000 (bottom)
 Mach =   0.000     Re =     0.225 e 6     Ncrit =   9.000

  alpha     CL        CD       CDp       Cm    Top Xtr Bot Xtr   Cpmin    Chinge    XCp    
 ------- -------- --------- --------- -------- ------- ------- -------- --------- ---------
 -10.000  -0.3161   0.10954   0.10611  -0.0353  1.0000  0.0301  -1.5944   0.0000   0.0000   0.0000   0.1287
  -9.900  -0.3144   0.10844   0.10503  -0.0354  1.0000  0.0303  -1.5787   0.0000   0.0000   0.0000   0.1280
  -9.800  -0.3128   0.10734   0.10394  -0.0354  1.0000  0.0306  -1.5646   0.0000   0.0000   0.0000   0.1273
  -9.700  -0.3114   0.10625   0.10287  -0.0355  1.0000  0.0309  -1.5521   0.0000   0.0000   0.0000   0.1266
  -9.600  -0.3102   0.10516   0.10179  -0.0356  1.0000  0.0312  -1.5411   0.0000   0.0000   0.0000   0.1259
  -9.500  -0.3091   0.10408   0.10073  -0.0357  1.0000  0.0314  -1.5314   0.0000   0.0000   0.0000   0.1254
  -9.400  -0.3082   0.10301   0.09967  -0.0358  1.0000  0.0317  -1.5229   0.0000   0.0000   0.0000   0.1248
  -9.300  -0.3074   0.10194   0.09862  -0.0359  1.0000  0.0320  -1.5157   0.0000   0.0000   0.0000   0.1244
  -9.200  -0.3069   0.10088   0.09758  -0.0359  1.0000  0.0323  -1.5096   0.0000   0.0000   0.0000   0.1242
  -9.100  -0.3066   0.09984   0.09655  -0.0359  1.0000  0.0326  -1.5047   0.0000   0.0000   0.0000   0.1241
  -9.000  -0.3065   0.09881   0.09554  -0.0359  1.0000  0.0329  -1.5008   0.0000   0.0000   0.0000   0.1242
  -8.900  -0.3066   0.09780   0.09455  -0.0359  1.0000  0.0332  -1.4999   0.0000   0.0000   0.0000   0.1245
  -8.800  -0.3071   0.09680   0.09357  -0.0358  1.0000  0.0335  -1.5056   0.0000   0.0000   0.0000   0.1251
  -8.700  -0.3079   0.09583   0.09263  -0.0356  1.0000  0.0338  -1.5122   0.0000   0.0000   0.0000   0.1261
  -8.600  -0.3091   0.09489   0.09171  -0.0354  1.0000  0.0341  -1.5197   0.0000   0.0000   0.0000   0.1274
  -8.500  -0.3107   0.09399   0.09083  -0.0351  1.0000  0.0344  -1.5281   0.0000   0.0000   0.0000   0.1290
  -8.400  -0.3127   0.09312   0.08998  -0.0348  1.0000  0.0346  -1.5374   0.0000   0.0000   0.0000   0.1312
  -8.300  -0.3152   0.09229   0.08918  -0.0343  1.0000  0.0349  -1.5476   0.0000   0.0000   0.0000   0.1338
  -8.200  -0.3182   0.09150   0.08841  -0.0337  1.0000  0.0351  -1.5585   0.0000   0.0000   0.0000   0.1367
  -8.100  -0.3217   0.09075   0.08769  -0.0331  1.0000  0.0354  -1.5701   0.0000   0.0000   0.0000   0.1401
  -8.000  -0.3257   0.09003   0.08700  -0.0324  1.0000  0.0356  -1.5825   0.0000   0.0000   0.0000   0.1437
  -7.900  -0.3300   0.08935   0.08634  -0.0316  1.0000  0.0358  -1.5954   0.0000   0.0000   0.0000   0.1476
  -7.800  -0.3347   0.08869   0.08571  -0.0308  1.0000  0.0360  -1.6090   0.0000   0.0000   0.0000   0.1516
  -7.700  -0.3398   0.08807   0.08511  -0.0299  1.0000  0.0362  -1.6231   0.0000   0.0000   0.0000   0.1558
  -7.600  -0.3454   0.08747   0.08454  -0.0290  1.0000  0.0363  -1.6377   0.0000   0.0000   0.0000   0.1602
  -7.500  -0.3513   0.08690   0.08400  -0.0280  1.0000  0.0365  -1.6527   0.0000   0.0000   0.0000   0.1646
  -7.400  -0.3576   0.08636   0.08349  -0.0269  1.0000  0.0366  -1.6681   0.0000   0.0000   0.0000   0.1691
  -7.300  -0.3645   0.08585   0.08302  -0.0258  1.0000  0.0367  -1.6839   0.0000   0.0000   0.0000   0.1738
  -7.200  -0.3719   0.08539   0.08259  -0.0246  1.0000  0.0368  -1.7000   0.0000   0.0000   0.0000   0.1786
  -7.100  -0.3798   0.08497   0.08219  -0.0234  1.0000  0.0368  -1.7163   0.0000   0.0000   0.0000   0.1835
  -7.000  -0.3790   0.08362   0.08086  -0.0249  0.9985  0.0372  -1.7371   0.0000   0.0000   0.0000   0.1794
  -6.900  -0.3701   0.08138   0.07862  -0.0294  0.9956  0.0380  -1.7686   0.0000   0.0000   0.0000   0.1657
  -6.800  -0.3559   0.07861   0.07581  -0.0362  0.9924  0.0392  -1.8185   0.0000   0.0000   0.0000   0.1432
  -6.700  -0.3367   0.07591   0.07308  -0.0447  0.9896  0.0403  -1.8697   0.0000   0.0000   0.0000   0.1122
  -6.600  -0.3257   0.07365   0.07078  -0.0495  0.9861  0.0406  -1.9036   0.0000   0.0000   0.0000   0.0928
  -6.500  -0.3147   0.07120   0.06828  -0.0539  0.9829  0.0408  -1.9381   0.0000   0.0000   0.0000   0.0733
  -6.400  -0.3035   0.06872   0.06573  -0.0580  0.9800  0.0409  -1.9712   0.0000   0.0000   0.0000   0.0534
  -6.300  -0.2920   0.06627   0.06320  -0.0618  0.9775  0.0410  -2.0015   0.0000   0.0000   0.0000   0.0328
  -6.200  -0.2802   0.06387   0.06071  -0.0653  0.9754  0.0411  -2.0283   0.0000   0.0000   0.0000   0.0109
  -6.100  -0.2800   0.05657   0.05333  -0.0713  0.9730  0.0422  -2.2019   0.0000   0.0000   0.0000  -0.0108
  -6.000  -0.2724   0.05336   0.05009  -0.0741  0.9717  0.0432  -2.2018   0.0000   0.0000   0.0000  -0.0281
  -5.900  -0.2608   0.05203   0.04878  -0.0753  0.9708  0.0440  -2.1364   0.0000   0.0000   0.0000  -0.0451
  -5.800  -0.2563   0.05110   0.04786  -0.0751  0.9671  0.0446  -2.0982   0.0000   0.0000   0.0000  -0.0494
  -5.700  -0.2488   0.05005   0.04679  -0.0756  0.9638  0.0453  -2.0573   0.0000   0.0000   0.0000  -0.0602
  -5.600  -0.2390   0.04883   0.04555  -0.0767  0.9611  0.0461  -2.0186   0.0000   0.0000   0.0000  -0.0774
  -5.500  -0.2277   0.04749   0.04417  -0.0782  0.9588  0.0472  -1.9847   0.0000   0.0000   0.0000  -0.1002
  -5.400  -0.2153   0.04601   0.04263  -0.0800  0.9568  0.0485  -1.9584   0.0000   0.0000   0.0000  -0.1285
  -5.300  -0.2016   0.04436   0.04090  -0.0821  0.9550  0.0500  -1.9414   0.0000   0.0000   0.0000  -0.1644
  -5.200  -0.1868   0.04259   0.03901  -0.0844  0.9534  0.0519  -1.9342   0.0000   0.0000   0.0000  -0.2096
  -5.100  -0.1706   0.04078   0.03706  -0.0869  0.9520  0.0542  -1.9380   0.0000   0.0000   0.0000  -0.2673
  -5.000  -0.1439   0.04273   0.03866  -0.0885  0.9508  0.0598  -1.9005   0.0000   0.0000   0.0000  -0.3745
  -4.900  -0.1275   0.04140   0.03716  -0.0904  0.9498  0.0600  -1.8962   0.0000   0.0000   0.0000  -0.4698
  -4.800  -0.1222   0.03435   0.02991  -0.0945  0.9486  0.0634  -1.9954   0.0000   0.0000   0.0000  -0.5343
  -4.700  -0.1155   0.02626   0.02080  -0.0925  0.9439  0.0282  -2.7179   0.0000   0.0000   0.0000  -0.5650
  -4.600  -0.1045   0.02583   0.02027  -0.0923  0.9406  0.0277  -2.6959   0.0000   0.0000   0.0000  -0.6487
  -4.500  -0.0911   0.02515   0.01947  -0.0927  0.9381  0.0274  -2.6736   0.0000   0.0000   0.0000  -0.7841
  -4.400  -0.0769   0.02409   0.01825  -0.0934  0.9362  0.0273  -2.6715   0.0000   0.0000   0.0000  -0.9844
  -4.300  -0.0624   0.02254   0.01647  -0.0942  0.9346  0.0274  -2.7031   0.0000   0.0000   0.0000  -1.2842
  -4.200  -0.0479   0.02069   0.01436  -0.0951  0.9332  0.0280  -2.7540   0.0000   0.0000   0.0000  -1.7677
  -4.100  -0.0328   0.01932   0.01283  -0.0960  0.9320  0.0292  -2.7579   0.0000   0.0000   0.0000  -2.7154
  -4.000  -0.0174   0.01859   0.01205  -0.0969  0.9308  0.0306  -2.6982   0.0000   0.0000   0.0000  -5.4103
  -3.900  -0.0013   0.01845   0.01194  -0.0980  0.9295  0.0335  -2.5733   0.0000   0.0000   0.0000  -77.4761
  -3.800   0.0151   0.01831   0.01179  -0.0990  0.9283  0.0367  -2.4670   0.0000   0.0000   0.0000   6.9120
  -3.700   0.0312   0.01787   0.01124  -0.0997  0.9271  0.0386  -2.4044   0.0000   0.0000   0.0000   3.4845
  -3.600   0.0471   0.01728   0.01056  -0.1004  0.9260  0.0396  -2.3549   0.0000   0.0000   0.0000   2.4087
  -3.500   0.0632   0.01688   0.01008  -0.1011  0.9249  0.0407  -2.2892   0.0000   0.0000   0.0000   1.8700
  -3.400   0.0683   0.01657   0.00974  -0.0998  0.9196  0.0413  -2.2533   0.0000   0.0000   0.0000   1.7283
  -3.300   0.0777   0.01550   0.00859  -0.0994  0.9160  0.0435  -2.2417   0.0000   0.0000   0.0000   1.5450
  -3.200   0.0896   0.01496   0.00806  -0.0995  0.9132  0.0468  -2.1746   0.0000   0.0000   0.0000   1.3731
  -3.100   0.1029   0.01474   0.00785  -0.0999  0.9107  0.0509  -2.0774   0.0000   0.0000   0.0000   1.2312
  -3.000   0.1165   0.01446   0.00756  -0.1002  0.9085  0.0542  -1.9931   0.0000   0.0000   0.0000   1.1187
  -2.900   0.1303   0.01413   0.00719  -0.1005  0.9065  0.0568  -1.9147   0.0000   0.0000   0.0000   1.0288
  -2.800   0.1445   0.01387   0.00687  -0.1009  0.9047  0.0591  -1.8301   0.0000   0.0000   0.0000   0.9548
  -2.700   0.1582   0.01340   0.00637  -0.1012  0.9029  0.0634  -1.7577   0.0000   0.0000   0.0000   0.8954
  -2.600   0.1719   0.01302   0.00603  -0.1016  0.9012  0.0717  -1.6765   0.0000   0.0000   0.0000   0.8458
  -2.500   0.1795   0.01290   0.00589  -0.1008  0.8961  0.0800  -1.6115   0.0000   0.0000   0.0000   0.8162
  -2.400   0.1891   0.01236   0.00558  -0.1005  0.8919  0.1236  -1.5600   0.0000   0.0000   0.0000   0.7859
  -2.300   0.1995   0.01180   0.00540  -0.1006  0.8885  0.2182  -1.4861   0.0000   0.0000   0.0000   0.7579
  -2.200   0.2109   0.01144   0.00526  -0.1007  0.8855  0.2861  -1.4006   0.0000   0.0000   0.0000   0.7307
  -2.100   0.2228   0.01112   0.00514  -0.1008  0.8828  0.3484  -1.3312   0.0000   0.0000   0.0000   0.7054
  -2.000   0.2347   0.01083   0.00504  -0.1009  0.8804  0.4108  -1.2613   0.0000   0.0000   0.0000   0.6825
  -1.900   0.2464   0.01056   0.00496  -0.1009  0.8782  0.4713  -1.1919   0.0000   0.0000   0.0000   0.6617
  -1.800   0.2552   0.01038   0.00495  -0.1004  0.8740  0.5266  -1.1316   0.0000   0.0000   0.0000   0.6451
  -1.700   0.2636   0.01021   0.00495  -0.0997  0.8692  0.5775  -1.0732   0.0000   0.0000   0.0000   0.6298
  -1.600   0.2727   0.01002   0.00493  -0.0990  0.8651  0.6340  -1.0127   0.0000   0.0000   0.0000   0.6145
  -1.500   0.2817   0.00982   0.00491  -0.0982  0.8615  0.6894  -0.9527   0.0000   0.0000   0.0000   0.5998
  -1.400   0.2906   0.00965   0.00487  -0.0973  0.8584  0.7378  -0.8936   0.0000   0.0000   0.0000   0.5857
  -1.300   0.2995   0.00950   0.00481  -0.0963  0.8556  0.7772  -0.8352   0.0000   0.0000   0.0000   0.5723
  -1.200   0.3080   0.00941   0.00476  -0.0953  0.8522  0.8070  -0.7790   0.0000   0.0000   0.0000   0.5601
  -1.100   0.3149   0.00935   0.00475  -0.0941  0.8467  0.8316  -0.7284   0.0000   0.0000   0.0000   0.5494
  -1.000   0.3227   0.00926   0.00469  -0.0930  0.8420  0.8557  -0.6753   0.0000   0.0000   0.0000   0.5387
  -0.900   0.3310   0.00915   0.00459  -0.0920  0.8380  0.8816  -0.6302   0.0000   0.0000   0.0000   0.5280
  -0.800   0.3414   0.00903   0.00446  -0.0913  0.8345  0.9109  -0.6032   0.0000   0.0000   0.0000   0.5174
  -0.700   0.3577   0.00890   0.00431  -0.0919  0.8317  0.9441  -0.6167   0.0000   0.0000   0.0000   0.5067
  -0.600   0.3806   0.00878   0.00415  -0.0941  0.8282  0.9805  -0.6337   0.0000   0.0000   0.0000   0.4969
  -0.500   0.3953   0.00875   0.00408  -0.0949  0.8225  1.0000  -0.6459   0.0000   0.0000   0.0000   0.4895
  -0.400   0.4057   0.00873   0.00401  -0.0947  0.8173  1.0000  -0.6557   0.0000   0.0000   0.0000   0.4828
  -0.300   0.4165   0.00871   0.00392  -0.0945  0.8127  1.0000  -0.6659   0.0000   0.0000   0.0000   0.4762
  -0.200   0.4279   0.00868   0.00381  -0.0944  0.8087  1.0000  -0.6764   0.0000   0.0000   0.0000   0.4698
  -0.100   0.4387   0.00868   0.00376  -0.0943  0.8040  1.0000  -0.6871   0.0000   0.0000   0.0000   0.4640
   0.000   0.4488   0.00869   0.00374  -0.0941  0.7978  1.0000  -0.6976   0.0000   0.0000   0.0000   0.4585
   0.100   0.4595   0.00869   0.00368  -0.0939  0.7922  1.0000  -0.7085   0.0000   0.0000   0.0000   0.4532
   0.200   0.4707   0.00868   0.00359  -0.0938  0.7874  1.0000  -0.7199   0.0000   0.0000   0.0000   0.4479
   0.300   0.4822   0.00867   0.00351  -0.0937  0.7832  1.0000  -0.7316   0.0000   0.0000   0.0000   0.4429
   0.400   0.4923   0.00870   0.00351  -0.0935  0.7767  1.0000  -0.7422   0.0000   0.0000   0.0000   0.4384
   0.500   0.5029   0.00871   0.00349  -0.0933  0.7705  1.0000  -0.7534   0.0000   0.0000   0.0000   0.4339
   0.600   0.5139   0.00871   0.00343  -0.0932  0.7651  1.0000  -0.7659   0.0000   0.0000   0.0000   0.4296
   0.700   0.5253   0.00872   0.00336  -0.0930  0.7603  1.0000  -0.7786   0.0000   0.0000   0.0000   0.4253
   0.800   0.5357   0.00875   0.00337  -0.0929  0.7539  1.0000  -0.7905   0.0000   0.0000   0.0000   0.4215
   0.900   0.5463   0.00878   0.00336  -0.0927  0.7474  1.0000  -0.8032   0.0000   0.0000   0.0000   0.4177
   1.000   0.5573   0.00880   0.00332  -0.0926  0.7415  1.0000  -0.8169   0.0000   0.0000   0.0000   0.4140
   1.100   0.5685   0.00883   0.00327  -0.0924  0.7363  1.0000  -0.8309   0.0000   0.0000   0.0000   0.4104
   1.200   0.5789   0.00886   0.00330  -0.0923  0.7293  1.0000  -0.8441   0.0000   0.0000   0.0000   0.4071
   1.300   0.5895   0.00889   0.00329  -0.0921  0.7225  1.0000  -0.8576   0.0000   0.0000   0.0000   0.4039
   1.400   0.6004   0.00893   0.00326  -0.0920  0.7164  1.0000  -0.8715   0.0000   0.0000   0.0000   0.4007
   1.500   0.6114   0.00898   0.00325  -0.0918  0.7107  1.0000  -0.8854   0.0000   0.0000   0.0000   0.3976
   1.600   0.6219   0.00902   0.00329  -0.0917  0.7036  1.0000  -0.8998   0.0000   0.0000   0.0000   0.3948
   1.700   0.6326   0.00906   0.00329  -0.0915  0.6968  1.0000  -0.9150   0.0000   0.0000   0.0000   0.3919
   1.800   0.6434   0.00912   0.00327  -0.0914  0.6907  1.0000  -0.9305   0.0000   0.0000   0.0000   0.3892
   1.900   0.6540   0.00917   0.00330  -0.0912  0.6839  1.0000  -0.9457   0.0000   0.0000   0.0000   0.3865
   2.000   0.6646   0.00922   0.00332  -0.0911  0.6764  1.0000  -0.9608   0.0000   0.0000   0.0000   0.3840
   2.100   0.6752   0.00928   0.00332  -0.0909  0.6697  1.0000  -0.9763   0.0000   0.0000   0.0000   0.3815
   2.200   0.6859   0.00935   0.00333  -0.0907  0.6632  1.0000  -0.9918   0.0000   0.0000   0.0000   0.3790
   2.300   0.6964   0.00940   0.00337  -0.0906  0.6555  1.0000  -1.0070   0.0000   0.0000   0.0000   0.3767
   2.400   0.7069   0.00946   0.00339  -0.0904  0.6483  1.0000  -1.0224   0.0000   0.0000   0.0000   0.3745
   2.500   0.7175   0.00955   0.00339  -0.0902  0.6419  1.0000  -1.0380   0.0000   0.0000   0.0000   0.3722
   2.600   0.7280   0.00960   0.00345  -0.0901  0.6342  1.0000  -1.0534   0.0000   0.0000   0.0000   0.3701
   2.700   0.7384   0.00967   0.00348  -0.0899  0.6265  1.0000  -1.0691   0.0000   0.0000   0.0000   0.3680
   2.800   0.7488   0.00976   0.00349  -0.0897  0.6195  1.0000  -1.0866   0.0000   0.0000   0.0000   0.3660
   2.900   0.7592   0.00983   0.00355  -0.0895  0.6119  1.0000  -1.1039   0.0000   0.0000   0.0000   0.3640
   3.000   0.7696   0.00990   0.00359  -0.0894  0.6042  1.0000  -1.1213   0.0000   0.0000   0.0000   0.3621
   3.100   0.7799   0.00999   0.00365  -0.0891  0.5970  1.0000  -1.1388   0.0000   0.0000   0.0000   0.3602
   3.200   0.7903   0.01008   0.00371  -0.0890  0.5898  1.0000  -1.1563   0.0000   0.0000   0.0000   0.3584
   3.300   0.8006   0.01015   0.00376  -0.0888  0.5820  1.0000  -1.1738   0.0000   0.0000   0.0000   0.3566
   3.400   0.8109   0.01025   0.00381  -0.0886  0.5748  1.0000  -1.1914   0.0000   0.0000   0.0000   0.3549
   3.500   0.8212   0.01035   0.00386  -0.0884  0.5680  1.0000  -1.2090   0.0000   0.0000   0.0000   0.3532
   3.600   0.8315   0.01042   0.00393  -0.0883  0.5602  1.0000  -1.2266   0.0000   0.0000   0.0000   0.3516
   3.700   0.8416   0.01052   0.00399  -0.0881  0.5526  1.0000  -1.2443   0.0000   0.0000   0.0000   0.3499
   3.800   0.8517   0.01065   0.00404  -0.0878  0.5458  1.0000  -1.2634   0.0000   0.0000   0.0000   0.3483
   3.900   0.8620   0.01071   0.00412  -0.0877  0.5378  1.0000  -1.2836   0.0000   0.0000   0.0000   0.3468
   4.000   0.8721   0.01081   0.00419  -0.0875  0.5302  1.0000  -1.3037   0.0000   0.0000   0.0000   0.3453
   4.100   0.8821   0.01095   0.00425  -0.0872  0.5234  1.0000  -1.3238   0.0000   0.0000   0.0000   0.3438
   4.200   0.8924   0.01103   0.00434  -0.0871  0.5161  1.0000  -1.3441   0.0000   0.0000   0.0000   0.3424
   4.300   0.9025   0.01113   0.00442  -0.0869  0.5088  1.0000  -1.3645   0.0000   0.0000   0.0000   0.3410
   4.400   0.9124   0.01126   0.00450  -0.0867  0.5021  1.0000  -1.3868   0.0000   0.0000   0.0000   0.3396
   4.500   0.9225   0.01137   0.00459  -0.0865  0.4954  1.0000  -1.4104   0.0000   0.0000   0.0000   0.3382
   4.600   0.9326   0.01146   0.00473  -0.0863  0.4878  1.0000  -1.4340   0.0000   0.0000   0.0000   0.3369
   4.700   0.9424   0.01159   0.00482  -0.0861  0.4805  1.0000  -1.4575   0.0000   0.0000   0.0000   0.3356
   4.800   0.9522   0.01173   0.00491  -0.0858  0.4737  1.0000  -1.4811   0.0000   0.0000   0.0000   0.3343
   4.900   0.9623   0.01182   0.00501  -0.0856  0.4660  1.0000  -1.5061   0.0000   0.0000   0.0000   0.3330
   5.000   0.9720   0.01194   0.00511  -0.0854  0.4586  1.0000  -1.5340   0.0000   0.0000   0.0000   0.3318
   5.100   0.9815   0.01211   0.00521  -0.0851  0.4519  1.0000  -1.5618   0.0000   0.0000   0.0000   0.3305
   5.200   0.9917   0.01220   0.00532  -0.0850  0.4450  1.0000  -1.5930   0.0000   0.0000   0.0000   0.3294
   5.300   1.0015   0.01232   0.00544  -0.0847  0.4380  1.0000  -1.6266   0.0000   0.0000   0.0000   0.3282
   5.400   1.0110   0.01247   0.00554  -0.0845  0.4315  1.0000  -1.6600   0.0000   0.0000   0.0000   0.3270
   5.500   1.0208   0.01262   0.00567  -0.0842  0.4250  1.0000  -1.6937   0.0000   0.0000   0.0000   0.3259
   5.600   1.0306   0.01272   0.00579  -0.0840  0.4178  1.0000  -1.7279   0.0000   0.0000   0.0000   0.3248
   5.700   1.0401   0.01286   0.00590  -0.0838  0.4106  1.0000  -1.7617   0.0000   0.0000   0.0000   0.3236
   5.800   1.0492   0.01306   0.00603  -0.0834  0.4040  1.0000  -1.7953   0.0000   0.0000   0.0000   0.3225
   5.900   1.0592   0.01314   0.00616  -0.0832  0.3969  1.0000  -1.8301   0.0000   0.0000   0.0000   0.3215
   6.000   1.0686   0.01328   0.00633  -0.0830  0.3898  1.0000  -1.8644   0.0000   0.0000   0.0000   0.3204
   6.100   1.0777   0.01347   0.00646  -0.0827  0.3832  1.0000  -1.9015   0.0000   0.0000   0.0000   0.3193
   6.200   1.0872   0.01361   0.00660  -0.0824  0.3767  1.0000  -1.9425   0.0000   0.0000   0.0000   0.3183
   6.300   1.0968   0.01373   0.00674  -0.0822  0.3696  1.0000  -1.9839   0.0000   0.0000   0.0000   0.3173
   6.400   1.1058   0.01390   0.00688  -0.0818  0.3626  1.0000  -2.0246   0.0000   0.0000   0.0000   0.3163
   6.500   1.1146   0.01410   0.00703  -0.0815  0.3561  1.0000  -2.0651   0.0000   0.0000   0.0000   0.3152
   6.600   1.1243   0.01420   0.00718  -0.0813  0.3493  1.0000  -2.1075   0.0000   0.0000   0.0000   0.3143
   6.700   1.1334   0.01436   0.00733  -0.0809  0.3424  1.0000  -2.1490   0.0000   0.0000   0.0000   0.3133
   6.800   1.1419   0.01457   0.00749  -0.0806  0.3359  1.0000  -2.1897   0.0000   0.0000   0.0000   0.3123
   6.900   1.1512   0.01472   0.00765  -0.0803  0.3296  1.0000  -2.2320   0.0000   0.0000   0.0000   0.3114
   7.000   1.1603   0.01486   0.00781  -0.0800  0.3224  1.0000  -2.2780   0.0000   0.0000   0.0000   0.3104
   7.100   1.1688   0.01505   0.00797  -0.0796  0.3155  1.0000  -2.3262   0.0000   0.0000   0.0000   0.3094
   7.200   1.1771   0.01527   0.00815  -0.0792  0.3088  1.0000  -2.3742   0.0000   0.0000   0.0000   0.3085
   7.300   1.1864   0.01539   0.00831  -0.0789  0.3017  1.0000  -2.4249   0.0000   0.0000   0.0000   0.3076
   7.400   1.1949   0.01557   0.00848  -0.0785  0.2947  1.0000  -2.4740   0.0000   0.0000   0.0000   0.3067
   7.500   1.2026   0.01582   0.00871  -0.0780  0.2881  1.0000  -2.5243   0.0000   0.0000   0.0000   0.3057
   7.600   1.2117   0.01596   0.00889  -0.0777  0.2816  1.0000  -2.5828   0.0000   0.0000   0.0000   0.3048
   7.700   1.2204   0.01612   0.00907  -0.0773  0.2748  1.0000  -2.6405   0.0000   0.0000   0.0000   0.3039
   7.800   1.2282   0.01635   0.00926  -0.0769  0.2684  1.0000  -2.6963   0.0000   0.0000   0.0000   0.3030
   7.900   1.2360   0.01661   0.00948  -0.0764  0.2626  1.0000  -2.7520   0.0000   0.0000   0.0000   0.3021
   8.000   1.2451   0.01674   0.00968  -0.0761  0.2567  1.0000  -2.8383   0.0000   0.0000   0.0000   0.3013
   8.100   1.2533   0.01693   0.00988  -0.0757  0.2504  1.0000  -2.9291   0.0000   0.0000   0.0000   0.3004
   8.200   1.2606   0.01719   0.01010  -0.0751  0.2443  1.0000  -3.0165   0.0000   0.0000   0.0000   0.2995
   8.300   1.2683   0.01742   0.01033  -0.0747  0.2384  1.0000  -3.1068   0.0000   0.0000   0.0000   0.2986
   8.400   1.2769   0.01758   0.01053  -0.0743  0.2319  1.0000  -3.2023   0.0000   0.0000   0.0000   0.2978
   8.500   1.2843   0.01780   0.01074  -0.0738  0.2254  1.0000  -3.2936   0.0000   0.0000   0.0000   0.2969
   8.600   1.2906   0.01811   0.01099  -0.0731  0.2192  1.0000  -3.3798   0.0000   0.0000   0.0000   0.2959
   8.700   1.2989   0.01829   0.01122  -0.0727  0.2134  1.0000  -3.4804   0.0000   0.0000   0.0000   0.2951
   8.800   1.3067   0.01848   0.01144  -0.0722  0.2071  1.0000  -3.5930   0.0000   0.0000   0.0000   0.2943
   8.900   1.3134   0.01874   0.01168  -0.0716  0.2012  1.0000  -3.6999   0.0000   0.0000   0.0000   0.2934
   9.000   1.3189   0.01910   0.01199  -0.0708  0.1954  1.0000  -3.7996   0.0000   0.0000   0.0000   0.2924
   9.100   1.3272   0.01926   0.01222  -0.0704  0.1902  1.0000  -3.9182   0.0000   0.0000   0.0000   0.2916
   9.200   1.3344   0.01949   0.01247  -0.0699  0.1841  1.0000  -4.0311   0.0000   0.0000   0.0000   0.2908
   9.300   1.3400   0.01979   0.01274  -0.0691  0.1781  1.0000  -4.1357   0.0000   0.0000   0.0000   0.2899
   9.400   1.3447   0.02017   0.01312  -0.0683  0.1721  1.0000  -4.2280   0.0000   0.0000   0.0000   0.2889
   9.500   1.3525   0.02034   0.01337  -0.0678  0.1662  1.0000  -4.3463   0.0000   0.0000   0.0000   0.2881
   9.600   1.3582   0.02062   0.01365  -0.0670  0.1597  1.0000  -4.4537   0.0000   0.0000   0.0000   0.2872
   9.700   1.3614   0.02100   0.01397  -0.0659  0.1537  1.0000  -4.5454   0.0000   0.0000   0.0000   0.2861
   9.800   1.3661   0.02131   0.01430  -0.0650  0.1479  1.0000  -4.6467   0.0000   0.0000   0.0000   0.2851
   9.900   1.3718   0.02155   0.01458  -0.0642  0.1417  1.0000  -4.7561   0.0000   0.0000   0.0000   0.2842
  10.000   1.3752   0.02191   0.01491  -0.0632  0.1357  1.0000  -4.8509   0.0000   0.0000   0.0000   0.2832
  10.100   1.3761   0.02242   0.01536  -0.0618  0.1299  1.0000  -4.9281   0.0000   0.0000   0.0000   0.2820
  10.200   1.3818   0.02269   0.01569  -0.0610  0.1245  1.0000  -5.0386   0.0000   0.0000   0.0000   0.2811
  10.300   1.3860   0.02303   0.01604  -0.0601  0.1187  1.0000  -5.1398   0.0000   0.0000   0.0000   0.2802
  10.400   1.3880   0.02349   0.01647  -0.0590  0.1132  1.0000  -5.2264   0.0000   0.0000   0.0000   0.2791
  10.500   1.3876   0.02413   0.01704  -0.0575  0.1078  1.0000  -5.2929   0.0000   0.0000   0.0000   0.2779
  10.600   1.3935   0.02441   0.01740  -0.0569  0.1034  1.0000  -5.4074   0.0000   0.0000   0.0000   0.2771
  10.700   1.3972   0.02481   0.01782  -0.0560  0.0986  1.0000  -5.5061   0.0000   0.0000   0.0000   0.2762
  10.800   1.3989   0.02533   0.01831  -0.0549  0.0942  1.0000  -5.5918   0.0000   0.0000   0.0000   0.2753
  10.900   1.3983   0.02602   0.01895  -0.0536  0.0900  1.0000  -5.6578   0.0000   0.0000   0.0000   0.2742
  11.000   1.3998   0.02662   0.01957  -0.0525  0.0866  1.0000  -5.7382   0.0000   0.0000   0.0000   0.2732
  11.100   1.4044   0.02700   0.02002  -0.0518  0.0837  1.0000  -5.8440   0.0000   0.0000   0.0000   0.2724
  11.200   1.4077   0.02747   0.02054  -0.0510  0.0807  1.0000  -5.9415   0.0000   0.0000   0.0000   0.2716
  11.300   1.4101   0.02801   0.02110  -0.0501  0.0779  1.0000  -6.0314   0.0000   0.0000   0.0000   0.2708
  11.400   1.4111   0.02864   0.02172  -0.0492  0.0753  1.0000  -6.1121   0.0000   0.0000   0.0000   0.2699
  11.500   1.4107   0.02941   0.02248  -0.0481  0.0727  1.0000  -6.1788   0.0000   0.0000   0.0000   0.2690
  11.600   1.4083   0.03039   0.02345  -0.0469  0.0699  1.0000  -6.2266   0.0000   0.0000   0.0000   0.2680
  11.700   1.4088   0.03119   0.02429  -0.0459  0.0680  1.0000  -6.2961   0.0000   0.0000   0.0000   0.2671
  11.800   1.4130   0.03164   0.02482  -0.0453  0.0665  1.0000  -6.4015   0.0000   0.0000   0.0000   0.2665
  11.900   1.4165   0.03215   0.02539  -0.0447  0.0647  1.0000  -6.5025   0.0000   0.0000   0.0000   0.2658
  12.000   1.4194   0.03270   0.02600  -0.0441  0.0627  1.0000  -6.5994   0.0000   0.0000   0.0000   0.2651
  12.100   1.4219   0.03329   0.02663  -0.0435  0.0606  1.0000  -6.6951   0.0000   0.0000   0.0000   0.2645
  12.200   1.4236   0.03393   0.02730  -0.0429  0.0585  1.0000  -6.7867   0.0000   0.0000   0.0000   0.2638
  12.300   1.4239   0.03472   0.02808  -0.0423  0.0565  1.0000  -6.8653   0.0000   0.0000   0.0000   0.2632
  12.400   1.4225   0.03568   0.02904  -0.0415  0.0544  1.0000  -6.9267   0.0000   0.0000   0.0000   0.2625
  12.500   1.4192   0.03690   0.03026  -0.0407  0.0523  1.0000  -6.9661   0.0000   0.0000   0.0000   0.2618
  12.600   1.4171   0.03808   0.03153  -0.0399  0.0504  1.0000  -7.0158   0.0000   0.0000   0.0000   0.2611
  12.700   1.4218   0.03848   0.03201  -0.0397  0.0493  1.0000  -7.1379   0.0000   0.0000   0.0000   0.2607
  12.800   1.4254   0.03904   0.03263  -0.0394  0.0478  1.0000  -7.2470   0.0000   0.0000   0.0000   0.2602
  12.900   1.4280   0.03970   0.03335  -0.0391  0.0462  1.0000  -7.3467   0.0000   0.0000   0.0000   0.2598
  13.000   1.4299   0.04044   0.03414  -0.0388  0.0446  1.0000  -7.4408   0.0000   0.0000   0.0000   0.2593
  13.100   1.4313   0.04125   0.03500  -0.0385  0.0432  1.0000  -7.5290   0.0000   0.0000   0.0000   0.2589
  13.200   1.4317   0.04217   0.03596  -0.0382  0.0418  1.0000  -7.6085   0.0000   0.0000   0.0000   0.2585
  13.300   1.4311   0.04322   0.03703  -0.0379  0.0406  1.0000  -7.6764   0.0000   0.0000   0.0000   0.2581
  13.400   1.4293   0.04443   0.03826  -0.0376  0.0394  1.0000  -7.7312   0.0000   0.0000   0.0000   0.2578
  13.500   1.4263   0.04579   0.03964  -0.0373  0.0382  1.0000  -7.7716   0.0000   0.0000   0.0000   0.2574
  13.600   1.4219   0.04736   0.04124  -0.0370  0.0369  1.0000  -7.7936   0.0000   0.0000   0.0000   0.2571
  13.700   1.4162   0.04917   0.04310  -0.0367  0.0355  1.0000  -7.7943   0.0000   0.0000   0.0000   0.2567
  13.800   1.4154   0.05040   0.04439  -0.0365  0.0347  1.0000  -7.8503   0.0000   0.0000   0.0000   0.2565
  13.900   1.4173   0.05130   0.04537  -0.0366  0.0340  1.0000  -7.9386   0.0000   0.0000   0.0000   0.2563
  14.000   1.4185   0.05232   0.04647  -0.0366  0.0330  1.0000  -8.0172   0.0000   0.0000   0.0000   0.2561
  14.100   1.4188   0.05345   0.04767  -0.0367  0.0319  1.0000  -8.0872   0.0000   0.0000   0.0000   0.2559
  14.200   1.4187   0.05466   0.04893  -0.0369  0.0305  1.0000  -8.1522   0.0000   0.0000   0.0000   0.2558
  14.300   1.4179   0.05597   0.05029  -0.0371  0.0292  1.0000  -8.2117   0.0000   0.0000   0.0000   0.2558
  14.400   1.4167   0.05734   0.05170  -0.0374  0.0280  1.0000  -8.2694   0.0000   0.0000   0.0000   0.2558
  14.500   1.4142   0.05893   0.05332  -0.0378  0.0268  1.0000  -8.3127   0.0000   0.0000   0.0000   0.2559
  14.600   1.4099   0.06079   0.05519  -0.0383  0.0258  1.0000  -8.3346   0.0000   0.0000   0.0000   0.2561
  14.700   1.4035   0.06297   0.05739  -0.0387  0.0247  1.0000  -8.3280   0.0000   0.0000   0.0000   0.2564
  14.800   1.3949   0.06548   0.05995  -0.0392  0.0236  1.0000  -8.2860   0.0000   0.0000   0.0000   0.2567
  14.900   1.3879   0.06785   0.06237  -0.0396  0.0226  1.0000  -8.2534   0.0000   0.0000   0.0000   0.2569
  15.000   1.3888   0.06920   0.06380  -0.0402  0.0218  1.0000  -8.3227   0.0000   0.0000   0.0000   0.2571


