xflr5 v6.61

 Calculated polar for: SD7032-099-88

 1 1 Reynolds number fixed          Mach number fixed         

 xtrf =   1.000 (top)        1.000 (bottom)
 Mach =   0.000     Re =     0.075 e 6     Ncrit =   9.000

  alpha     CL        CD       CDp       Cm    Top Xtr Bot Xtr   Cpmin    Chinge    XCp    
 ------- -------- --------- --------- -------- ------- ------- -------- --------- ---------
 -10.000  -0.3167   0.11873   0.11290  -0.0328  1.0000  0.0993  -1.2675   0.0000   0.0000   0.0000   0.1376
  -9.900  -0.3184   0.11820   0.11239  -0.0334  1.0000  0.1007  -1.2864   0.0000   0.0000   0.0000   0.1363
  -9.800  -0.3219   0.11802   0.11225  -0.0343  1.0000  0.1018  -1.3136   0.0000   0.0000   0.0000   0.1350
  -9.700  -0.3269   0.11812   0.11240  -0.0353  1.0000  0.1027  -1.3467   0.0000   0.0000   0.0000   0.1337
  -9.600  -0.3322   0.11827   0.11260  -0.0363  1.0000  0.1033  -1.3804   0.0000   0.0000   0.0000   0.1328
  -9.500  -0.3374   0.11833   0.11271  -0.0372  1.0000  0.1036  -1.4121   0.0000   0.0000   0.0000   0.1321
  -9.400  -0.3423   0.11825   0.11269  -0.0379  1.0000  0.1039  -1.4413   0.0000   0.0000   0.0000   0.1319
  -9.300  -0.3469   0.11806   0.11254  -0.0385  1.0000  0.1041  -1.4676   0.0000   0.0000   0.0000   0.1319
  -9.200  -0.3514   0.11777   0.11230  -0.0390  1.0000  0.1042  -1.4921   0.0000   0.0000   0.0000   0.1323
  -9.100  -0.3561   0.11743   0.11201  -0.0393  1.0000  0.1043  -1.5157   0.0000   0.0000   0.0000   0.1331
  -9.000  -0.3612   0.11704   0.11168  -0.0395  1.0000  0.1044  -1.5387   0.0000   0.0000   0.0000   0.1343
  -8.900  -0.3266   0.10765   0.10219  -0.0361  1.0000  0.1074  -1.4105   0.0000   0.0000   0.0000   0.1320
  -8.800  -0.3176   0.10563   0.10015  -0.0349  1.0000  0.1090  -1.3710   0.0000   0.0000   0.0000   0.1325
  -8.700  -0.3129   0.10423   0.09872  -0.0342  1.0000  0.1105  -1.3514   0.0000   0.0000   0.0000   0.1331
  -8.600  -0.3101   0.10306   0.09757  -0.0337  1.0000  0.1119  -1.3407   0.0000   0.0000   0.0000   0.1337
  -8.500  -0.3085   0.10201   0.09655  -0.0333  1.0000  0.1134  -1.3355   0.0000   0.0000   0.0000   0.1344
  -8.400  -0.3078   0.10104   0.09560  -0.0330  1.0000  0.1149  -1.3344   0.0000   0.0000   0.0000   0.1353
  -8.300  -0.3080   0.10013   0.09472  -0.0328  1.0000  0.1164  -1.3366   0.0000   0.0000   0.0000   0.1362
  -8.200  -0.3089   0.09928   0.09391  -0.0326  1.0000  0.1180  -1.3418   0.0000   0.0000   0.0000   0.1374
  -8.100  -0.3108   0.09851   0.09318  -0.0324  1.0000  0.1195  -1.3502   0.0000   0.0000   0.0000   0.1389
  -8.000  -0.3138   0.09786   0.09256  -0.0322  1.0000  0.1211  -1.3622   0.0000   0.0000   0.0000   0.1406
  -7.900  -0.3185   0.09738   0.09213  -0.0321  1.0000  0.1226  -1.3791   0.0000   0.0000   0.0000   0.1429
  -7.800  -0.3255   0.09715   0.09197  -0.0319  1.0000  0.1240  -1.4019   0.0000   0.0000   0.0000   0.1458
  -7.700  -0.3347   0.09718   0.09206  -0.0316  1.0000  0.1250  -1.4294   0.0000   0.0000   0.0000   0.1498
  -7.600  -0.3454   0.09734   0.09229  -0.0310  1.0000  0.1257  -1.4579   0.0000   0.0000   0.0000   0.1546
  -7.500  -0.3567   0.09750   0.09251  -0.0302  1.0000  0.1261  -1.4850   0.0000   0.0000   0.0000   0.1600
  -7.400  -0.3679   0.09761   0.09269  -0.0296  1.0000  0.1264  -1.5121   0.0000   0.0000   0.0000   0.1647
  -7.300  -0.3782   0.09757   0.09271  -0.0301  1.0000  0.1268  -1.5460   0.0000   0.0000   0.0000   0.1659
  -7.200  -0.3876   0.09740   0.09258  -0.0312  1.0000  0.1271  -1.5833   0.0000   0.0000   0.0000   0.1652
  -7.100  -0.3956   0.09713   0.09239  -0.0326  1.0000  0.1274  -1.6212   0.0000   0.0000   0.0000   0.1636
  -7.000  -0.4026   0.09673   0.09200  -0.0340  1.0000  0.1277  -1.6590   0.0000   0.0000   0.0000   0.1618
  -6.900  -0.4088   0.09624   0.09150  -0.0352  1.0000  0.1278  -1.6951   0.0000   0.0000   0.0000   0.1601
  -6.800  -0.3993   0.09141   0.08674  -0.0302  1.0000  0.1294  -1.6298   0.0000   0.0000   0.0000   0.1704
  -6.700  -0.3857   0.08911   0.08444  -0.0253  1.0000  0.1315  -1.5524   0.0000   0.0000   0.0000   0.1802
  -6.600  -0.3804   0.08788   0.08322  -0.0232  1.0000  0.1332  -1.5209   0.0000   0.0000   0.0000   0.1848
  -6.500  -0.3792   0.08693   0.08229  -0.0219  1.0000  0.1348  -1.5075   0.0000   0.0000   0.0000   0.1880
  -6.400  -0.3799   0.08608   0.08146  -0.0210  1.0000  0.1364  -1.5023   0.0000   0.0000   0.0000   0.1907
  -6.300  -0.3818   0.08527   0.08068  -0.0203  1.0000  0.1379  -1.5024   0.0000   0.0000   0.0000   0.1930
  -6.200  -0.3845   0.08446   0.07991  -0.0198  1.0000  0.1396  -1.5063   0.0000   0.0000   0.0000   0.1947
  -6.100  -0.3876   0.08365   0.07912  -0.0195  1.0000  0.1413  -1.5136   0.0000   0.0000   0.0000   0.1959
  -6.000  -0.3913   0.08282   0.07832  -0.0196  1.0000  0.1432  -1.5250   0.0000   0.0000   0.0000   0.1963
  -5.900  -0.3956   0.08200   0.07753  -0.0204  1.0000  0.1456  -1.5438   0.0000   0.0000   0.0000   0.1950
  -5.800  -0.4089   0.08261   0.07802  -0.0306  1.0000  0.1509  -1.6729   0.0000   0.0000   0.0000   0.1722
  -5.700  -0.4121   0.08126   0.07663  -0.0332  1.0000  0.1520  -1.7183   0.0000   0.0000   0.0000   0.1666
  -5.600  -0.4112   0.07845   0.07393  -0.0303  1.0000  0.1530  -1.6887   0.0000   0.0000   0.0000   0.1734
  -5.500  -0.4094   0.07685   0.07240  -0.0275  1.0000  0.1540  -1.6591   0.0000   0.0000   0.0000   0.1799
  -5.400  -0.4077   0.07569   0.07129  -0.0252  1.0000  0.1553  -1.6343   0.0000   0.0000   0.0000   0.1854
  -5.300  -0.4061   0.07471   0.07035  -0.0232  1.0000  0.1568  -1.6147   0.0000   0.0000   0.0000   0.1899
  -5.200  -0.4047   0.07381   0.06947  -0.0218  1.0000  0.1586  -1.6003   0.0000   0.0000   0.0000   0.1933
  -5.100  -0.4034   0.07296   0.06864  -0.0208  1.0000  0.1611  -1.5895   0.0000   0.0000   0.0000   0.1957
  -5.000  -0.4023   0.07205   0.06774  -0.0206  1.0000  0.1647  -1.5861   0.0000   0.0000   0.0000   0.1961
  -4.900  -0.3993   0.07056   0.06599  -0.0314  1.0000  0.1766  -1.6862   0.0000   0.0000   0.0000   0.1689
  -4.800  -0.3990   0.06881   0.06435  -0.0285  1.0000  0.1779  -1.6590   0.0000   0.0000   0.0000   0.1759
  -4.700  -0.3984   0.06781   0.06344  -0.0254  1.0000  0.1798  -1.6286   0.0000   0.0000   0.0000   0.1836
  -4.600  -0.3973   0.06720   0.06290  -0.0227  1.0000  0.1830  -1.6006   0.0000   0.0000   0.0000   0.1904
  -4.500  -0.3877   0.06669   0.06210  -0.0311  1.0000  0.2002  -1.6563   0.0000   0.0000   0.0000   0.1673
  -4.400  -0.3890   0.06476   0.06032  -0.0277  1.0000  0.2020  -1.6283   0.0000   0.0000   0.0000   0.1763
  -4.300  -0.3891   0.06387   0.05953  -0.0244  1.0000  0.2045  -1.5995   0.0000   0.0000   0.0000   0.1850
  -4.200  -0.3879   0.06328   0.05900  -0.0220  1.0000  0.2085  -1.5775   0.0000   0.0000   0.0000   0.1910
  -4.100  -0.3798   0.06202   0.05758  -0.0270  1.0000  0.2259  -1.6016   0.0000   0.0000   0.0000   0.1765
  -4.000  -0.3794   0.06092   0.05658  -0.0243  1.0000  0.2281  -1.5817   0.0000   0.0000   0.0000   0.1837
  -3.900  -0.3776   0.06013   0.05585  -0.0223  1.0000  0.2314  -1.5663   0.0000   0.0000   0.0000   0.1887
  -3.800  -0.3690   0.05913   0.05471  -0.0260  1.0000  0.2501  -1.5776   0.0000   0.0000   0.0000   0.1774
  -3.700  -0.3673   0.05792   0.05358  -0.0241  1.0000  0.2522  -1.5654   0.0000   0.0000   0.0000   0.1823
  -3.500  -0.2749   0.04216   0.03579  -0.0479  1.0000  0.1028  -2.1343   0.0000   0.0000   0.0000   0.0720
  -3.400  -0.2662   0.03984   0.03346  -0.0486  1.0000  0.0990  -2.1426   0.0000   0.0000   0.0000   0.0638
  -3.300  -0.2551   0.03794   0.03141  -0.0493  1.0000  0.0946  -2.1687   0.0000   0.0000   0.0000   0.0528
  -3.200  -0.2360   0.03510   0.02784  -0.0510  1.0000  0.0857  -2.2962   0.0000   0.0000   0.0000   0.0298
  -3.100  -0.2244   0.03455   0.02698  -0.0508  1.0000  0.0833  -2.3211   0.0000   0.0000   0.0000   0.0190
  -3.000  -0.2148   0.03411   0.02638  -0.0506  1.0000  0.0825  -2.3149   0.0000   0.0000   0.0000   0.0096
  -2.900  -0.1994   0.03334   0.02541  -0.0515  0.9983  0.0821  -2.3018   0.0000   0.0000   0.0000  -0.0132
  -2.800  -0.1805   0.03214   0.02397  -0.0531  0.9954  0.0820  -2.2904   0.0000   0.0000   0.0000  -0.0494
  -2.700  -0.1629   0.03013   0.02174  -0.0548  0.9932  0.0841  -2.2826   0.0000   0.0000   0.0000  -0.0925
  -2.600  -0.1449   0.02941   0.02105  -0.0567  0.9904  0.0900  -2.2081   0.0000   0.0000   0.0000  -0.1474
  -2.500  -0.1284   0.02891   0.02041  -0.0578  0.9867  0.0944  -2.1605   0.0000   0.0000   0.0000  -0.2073
  -2.400  -0.1110   0.02821   0.01952  -0.0589  0.9830  0.0963  -2.1313   0.0000   0.0000   0.0000  -0.2880
  -2.300  -0.0931   0.02758   0.01872  -0.0599  0.9795  0.0985  -2.0974   0.0000   0.0000   0.0000  -0.4026
  -2.200  -0.0744   0.02708   0.01804  -0.0611  0.9761  0.1013  -2.0554   0.0000   0.0000   0.0000  -0.5827
  -2.100  -0.0543   0.02679   0.01759  -0.0625  0.9730  0.1046  -2.0021   0.0000   0.0000   0.0000  -0.9160
  -2.000  -0.0353   0.02603   0.01695  -0.0642  0.9706  0.1144  -1.9265   0.0000   0.0000   0.0000  -1.5890
  -1.900  -0.0231   0.02575   0.01663  -0.0645  0.9656  0.1226  -1.8696   0.0000   0.0000   0.0000  -2.5671
  -1.800  -0.0083   0.02532   0.01615  -0.0650  0.9612  0.1296  -1.8201   0.0000   0.0000   0.0000  -7.6419
  -1.700   0.0076   0.02481   0.01576  -0.0658  0.9573  0.1414  -1.7577   0.0000   0.0000   0.0000   8.9988
  -1.600   0.0253   0.02431   0.01535  -0.0669  0.9539  0.1630  -1.7015   0.0000   0.0000   0.0000   2.9186
  -1.500   0.0439   0.02333   0.01492  -0.0683  0.9515  0.2542  -1.6604   0.0000   0.0000   0.0000   1.8183
  -1.400   0.0562   0.02186   0.01515  -0.0682  0.9497  0.5993  -1.6043   0.0000   0.0000   0.0000   1.4722
  -1.300   0.0598   0.02153   0.01535  -0.0656  0.9455  0.7529  -1.5507   0.0000   0.0000   0.0000   1.3552
  -1.200   0.0762   0.02096   0.01505  -0.0656  0.9396  1.0000  -1.4727   0.0000   0.0000   0.0000   1.1181
  -1.100   0.0933   0.02112   0.01494  -0.0669  0.9344  1.0000  -1.3959   0.0000   0.0000   0.0000   0.9721
  -1.000   0.1135   0.02132   0.01492  -0.0688  0.9301  1.0000  -1.3055   0.0000   0.0000   0.0000   0.8591
  -0.900   0.1360   0.02155   0.01495  -0.0709  0.9267  1.0000  -1.2078   0.0000   0.0000   0.0000   0.7743
  -0.800   0.1517   0.02173   0.01498  -0.0720  0.9220  1.0000  -1.1309   0.0000   0.0000   0.0000   0.7264
  -0.700   0.1608   0.02180   0.01494  -0.0719  0.9153  1.0000  -1.0744   0.0000   0.0000   0.0000   0.6984
  -0.600   0.1775   0.02193   0.01493  -0.0730  0.9101  1.0000  -0.9956   0.0000   0.0000   0.0000   0.6624
  -0.500   0.1977   0.02207   0.01493  -0.0747  0.9059  1.0000  -0.9069   0.0000   0.0000   0.0000   0.6285
  -0.400   0.2206   0.02222   0.01495  -0.0768  0.9027  1.0000  -0.8119   0.0000   0.0000   0.0000   0.5987
  -0.300   0.2330   0.02236   0.01500  -0.0772  0.8973  1.0000  -0.7484   0.0000   0.0000   0.0000   0.5816
  -0.200   0.2418   0.02245   0.01502  -0.0770  0.8904  1.0000  -0.6956   0.0000   0.0000   0.0000   0.5684
  -0.100   0.2588   0.02254   0.01501  -0.0781  0.8854  1.0000  -0.6278   0.0000   0.0000   0.0000   0.5515
   0.000   0.2798   0.02260   0.01495  -0.0798  0.8816  1.0000  -0.5638   0.0000   0.0000   0.0000   0.5347
   0.100   0.3036   0.02264   0.01490  -0.0819  0.8787  1.0000  -0.5814   0.0000   0.0000   0.0000   0.5192
   0.200   0.3112   0.02279   0.01499  -0.0815  0.8720  1.0000  -0.5883   0.0000   0.0000   0.0000   0.5110
   0.300   0.3211   0.02289   0.01503  -0.0814  0.8654  1.0000  -0.5976   0.0000   0.0000   0.0000   0.5025
   0.400   0.3394   0.02291   0.01498  -0.0826  0.8608  1.0000  -0.6128   0.0000   0.0000   0.0000   0.4922
   0.500   0.3618   0.02286   0.01487  -0.0844  0.8574  1.0000  -0.6309   0.0000   0.0000   0.0000   0.4820
   0.600   0.3868   0.02278   0.01472  -0.0866  0.8549  1.0000  -0.6510   0.0000   0.0000   0.0000   0.4724
   0.700   0.3887   0.02300   0.01491  -0.0851  0.8466  1.0000  -0.6548   0.0000   0.0000   0.0000   0.4676
   0.800   0.4015   0.02305   0.01491  -0.0854  0.8406  1.0000  -0.6665   0.0000   0.0000   0.0000   0.4612
   0.900   0.4218   0.02297   0.01477  -0.0868  0.8367  1.0000  -0.6848   0.0000   0.0000   0.0000   0.4541
   1.000   0.4455   0.02282   0.01457  -0.0887  0.8338  1.0000  -0.7059   0.0000   0.0000   0.0000   0.4473
   1.100   0.4692   0.02263   0.01433  -0.0905  0.8313  1.0000  -0.7273   0.0000   0.0000   0.0000   0.4409
   1.200   0.4704   0.02291   0.01459  -0.0890  0.8223  1.0000  -0.7313   0.0000   0.0000   0.0000   0.4371
   1.300   0.4843   0.02289   0.01454  -0.0893  0.8167  1.0000  -0.7464   0.0000   0.0000   0.0000   0.4322
   1.400   0.5036   0.02273   0.01435  -0.0903  0.8129  1.0000  -0.7662   0.0000   0.0000   0.0000   0.4271
   1.500   0.5244   0.02250   0.01409  -0.0915  0.8099  1.0000  -0.7875   0.0000   0.0000   0.0000   0.4222
   1.600   0.5462   0.02223   0.01380  -0.0928  0.8074  1.0000  -0.8098   0.0000   0.0000   0.0000   0.4175
   1.700   0.5464   0.02259   0.01414  -0.0912  0.7976  1.0000  -0.8139   0.0000   0.0000   0.0000   0.4144
   1.800   0.5611   0.02249   0.01402  -0.0915  0.7923  1.0000  -0.8303   0.0000   0.0000   0.0000   0.4104
   1.900   0.5795   0.02226   0.01377  -0.0922  0.7885  1.0000  -0.8506   0.0000   0.0000   0.0000   0.4064
   2.000   0.5995   0.02197   0.01348  -0.0931  0.7855  1.0000  -0.8738   0.0000   0.0000   0.0000   0.4026
   2.100   0.6201   0.02165   0.01314  -0.0941  0.7830  1.0000  -0.8978   0.0000   0.0000   0.0000   0.3989
   2.200   0.6183   0.02212   0.01361  -0.0923  0.7719  1.0000  -0.9008   0.0000   0.0000   0.0000   0.3963
   2.300   0.6338   0.02194   0.01341  -0.0926  0.7670  1.0000  -0.9203   0.0000   0.0000   0.0000   0.3930
   2.400   0.6521   0.02164   0.01310  -0.0931  0.7634  1.0000  -0.9425   0.0000   0.0000   0.0000   0.3897
   2.500   0.6715   0.02131   0.01274  -0.0938  0.7604  1.0000  -0.9660   0.0000   0.0000   0.0000   0.3865
   2.600   0.6744   0.02165   0.01309  -0.0926  0.7509  1.0000  -0.9734   0.0000   0.0000   0.0000   0.3841
   2.700   0.6872   0.02156   0.01299  -0.0925  0.7449  1.0000  -0.9905   0.0000   0.0000   0.0000   0.3813
   2.800   0.7040   0.02130   0.01270  -0.0929  0.7406  1.0000  -1.0118   0.0000   0.0000   0.0000   0.3785
   2.900   0.7221   0.02098   0.01235  -0.0933  0.7371  1.0000  -1.0353   0.0000   0.0000   0.0000   0.3757
   3.000   0.7271   0.02126   0.01265  -0.0924  0.7281  1.0000  -1.0463   0.0000   0.0000   0.0000   0.3734
   3.100   0.7390   0.02120   0.01258  -0.0922  0.7215  1.0000  -1.0648   0.0000   0.0000   0.0000   0.3710
   3.200   0.7549   0.02095   0.01231  -0.0924  0.7167  1.0000  -1.0879   0.0000   0.0000   0.0000   0.3685
   3.300   0.7721   0.02067   0.01204  -0.0927  0.7128  1.0000  -1.1126   0.0000   0.0000   0.0000   0.3661
   3.400   0.7763   0.02101   0.01241  -0.0917  0.7031  1.0000  -1.1227   0.0000   0.0000   0.0000   0.3641
   3.500   0.7888   0.02092   0.01231  -0.0915  0.6965  1.0000  -1.1422   0.0000   0.0000   0.0000   0.3619
   3.600   0.8043   0.02069   0.01204  -0.0916  0.6915  1.0000  -1.1654   0.0000   0.0000   0.0000   0.3596
   3.700   0.8153   0.02072   0.01206  -0.0913  0.6847  1.0000  -1.1833   0.0000   0.0000   0.0000   0.3576
   3.800   0.8236   0.02086   0.01221  -0.0907  0.6761  1.0000  -1.1983   0.0000   0.0000   0.0000   0.3557
   3.900   0.8372   0.02072   0.01204  -0.0906  0.6700  1.0000  -1.2212   0.0000   0.0000   0.0000   0.3537
   4.000   0.8532   0.02052   0.01177  -0.0908  0.6652  1.0000  -1.2483   0.0000   0.0000   0.0000   0.3517
   4.100   0.8582   0.02085   0.01216  -0.0899  0.6553  1.0000  -1.2612   0.0000   0.0000   0.0000   0.3500
   4.200   0.8699   0.02082   0.01210  -0.0896  0.6482  1.0000  -1.2831   0.0000   0.0000   0.0000   0.3482
   4.300   0.8848   0.02066   0.01187  -0.0896  0.6426  1.0000  -1.3093   0.0000   0.0000   0.0000   0.3464
   4.400   0.8919   0.02091   0.01216  -0.0890  0.6336  1.0000  -1.3250   0.0000   0.0000   0.0000   0.3447
   4.500   0.9023   0.02096   0.01220  -0.0886  0.6257  1.0000  -1.3471   0.0000   0.0000   0.0000   0.3430
   4.600   0.9163   0.02087   0.01204  -0.0886  0.6197  1.0000  -1.3760   0.0000   0.0000   0.0000   0.3414
   4.700   0.9247   0.02107   0.01227  -0.0881  0.6114  1.0000  -1.3966   0.0000   0.0000   0.0000   0.3399
   4.800   0.9341   0.02120   0.01248  -0.0876  0.6032  1.0000  -1.4189   0.0000   0.0000   0.0000   0.3383
   4.900   0.9473   0.02115   0.01237  -0.0875  0.5967  1.0000  -1.4471   0.0000   0.0000   0.0000   0.3368
   5.000   0.9565   0.02134   0.01256  -0.0871  0.5888  1.0000  -1.4706   0.0000   0.0000   0.0000   0.3353
   5.100   0.9652   0.02151   0.01276  -0.0866  0.5803  1.0000  -1.4960   0.0000   0.0000   0.0000   0.3339
   5.200   0.9777   0.02151   0.01270  -0.0864  0.5735  1.0000  -1.5283   0.0000   0.0000   0.0000   0.3324
   5.300   0.9877   0.02169   0.01287  -0.0861  0.5660  1.0000  -1.5560   0.0000   0.0000   0.0000   0.3311
   5.400   0.9957   0.02190   0.01312  -0.0855  0.5574  1.0000  -1.5834   0.0000   0.0000   0.0000   0.3297
   5.500   1.0077   0.02194   0.01310  -0.0853  0.5503  1.0000  -1.6210   0.0000   0.0000   0.0000   0.3284
   5.600   1.0180   0.02211   0.01325  -0.0850  0.5430  1.0000  -1.6552   0.0000   0.0000   0.0000   0.3271
   5.700   1.0257   0.02235   0.01355  -0.0844  0.5343  1.0000  -1.6841   0.0000   0.0000   0.0000   0.3258
   5.800   1.0372   0.02243   0.01358  -0.0842  0.5272  1.0000  -1.7213   0.0000   0.0000   0.0000   0.3245
   5.900   1.0482   0.02261   0.01371  -0.0840  0.5203  1.0000  -1.7574   0.0000   0.0000   0.0000   0.3234
   6.000   1.0552   0.02289   0.01408  -0.0834  0.5117  1.0000  -1.7853   0.0000   0.0000   0.0000   0.3221
   6.100   1.0661   0.02301   0.01423  -0.0831  0.5043  1.0000  -1.8218   0.0000   0.0000   0.0000   0.3209
   6.200   1.0778   0.02317   0.01431  -0.0829  0.4976  1.0000  -1.8603   0.0000   0.0000   0.0000   0.3198
   6.300   1.0841   0.02347   0.01472  -0.0822  0.4888  1.0000  -1.8910   0.0000   0.0000   0.0000   0.3186
   6.400   1.0945   0.02361   0.01483  -0.0819  0.4812  1.0000  -1.9337   0.0000   0.0000   0.0000   0.3175
   6.500   1.1066   0.02378   0.01489  -0.0818  0.4745  1.0000  -1.9810   0.0000   0.0000   0.0000   0.3164
   6.600   1.1125   0.02411   0.01536  -0.0811  0.4659  1.0000  -2.0122   0.0000   0.0000   0.0000   0.3153
   6.700   1.1224   0.02429   0.01553  -0.0807  0.4583  1.0000  -2.0541   0.0000   0.0000   0.0000   0.3142
   6.800   1.1351   0.02446   0.01557  -0.0807  0.4519  1.0000  -2.1038   0.0000   0.0000   0.0000   0.3132
   6.900   1.1406   0.02483   0.01608  -0.0799  0.4436  1.0000  -2.1343   0.0000   0.0000   0.0000   0.3121
   7.000   1.1497   0.02503   0.01630  -0.0795  0.4357  1.0000  -2.1750   0.0000   0.0000   0.0000   0.3110
   7.100   1.1619   0.02520   0.01633  -0.0794  0.4289  1.0000  -2.2260   0.0000   0.0000   0.0000   0.3101
   7.200   1.1679   0.02556   0.01683  -0.0787  0.4209  1.0000  -2.2640   0.0000   0.0000   0.0000   0.3090
   7.300   1.1763   0.02579   0.01708  -0.0782  0.4129  1.0000  -2.3104   0.0000   0.0000   0.0000   0.3079
   7.400   1.1881   0.02596   0.01713  -0.0780  0.4059  1.0000  -2.3678   0.0000   0.0000   0.0000   0.3070
   7.500   1.1946   0.02634   0.01762  -0.0774  0.3982  1.0000  -2.4079   0.0000   0.0000   0.0000   0.3060
   7.600   1.2023   0.02662   0.01794  -0.0768  0.3903  1.0000  -2.4528   0.0000   0.0000   0.0000   0.3049
   7.700   1.2135   0.02679   0.01808  -0.0766  0.3832  1.0000  -2.5094   0.0000   0.0000   0.0000   0.3040
   7.800   1.2207   0.02718   0.01853  -0.0760  0.3758  1.0000  -2.5557   0.0000   0.0000   0.0000   0.3031
   7.900   1.2276   0.02747   0.01890  -0.0753  0.3678  1.0000  -2.6053   0.0000   0.0000   0.0000   0.3020
   8.000   1.2380   0.02765   0.01899  -0.0751  0.3605  1.0000  -2.6691   0.0000   0.0000   0.0000   0.3011
   8.100   1.2459   0.02804   0.01940  -0.0746  0.3533  1.0000  -2.7415   0.0000   0.0000   0.0000   0.3002
   8.200   1.2519   0.02838   0.01985  -0.0738  0.3455  1.0000  -2.8164   0.0000   0.0000   0.0000   0.2992
   8.300   1.2616   0.02858   0.01999  -0.0735  0.3381  1.0000  -2.9137   0.0000   0.0000   0.0000   0.2983
   8.400   1.2704   0.02895   0.02033  -0.0731  0.3311  1.0000  -3.0061   0.0000   0.0000   0.0000   0.2974
   8.500   1.2752   0.02931   0.02083  -0.0722  0.3232  1.0000  -3.0769   0.0000   0.0000   0.0000   0.2964
   8.600   1.2839   0.02951   0.02099  -0.0717  0.3156  1.0000  -3.1724   0.0000   0.0000   0.0000   0.2955
   8.700   1.2932   0.02988   0.02127  -0.0714  0.3084  1.0000  -3.2716   0.0000   0.0000   0.0000   0.2947
   8.800   1.2972   0.03027   0.02183  -0.0704  0.3008  1.0000  -3.3388   0.0000   0.0000   0.0000   0.2936
   8.900   1.3050   0.03052   0.02207  -0.0698  0.2933  1.0000  -3.4312   0.0000   0.0000   0.0000   0.2927
   9.000   1.3151   0.03090   0.02229  -0.0696  0.2860  1.0000  -3.5381   0.0000   0.0000   0.0000   0.2920
   9.100   1.3178   0.03130   0.02291  -0.0684  0.2785  1.0000  -3.5995   0.0000   0.0000   0.0000   0.2908
   9.200   1.3244   0.03155   0.02315  -0.0677  0.2707  1.0000  -3.6881   0.0000   0.0000   0.0000   0.2899
   9.300   1.3342   0.03193   0.02335  -0.0675  0.2630  1.0000  -3.7977   0.0000   0.0000   0.0000   0.2892
   9.400   1.3361   0.03238   0.02402  -0.0663  0.2559  1.0000  -3.8549   0.0000   0.0000   0.0000   0.2880
   9.500   1.3420   0.03271   0.02437  -0.0655  0.2483  1.0000  -3.9392   0.0000   0.0000   0.0000   0.2871
   9.600   1.3532   0.03323   0.02474  -0.0655  0.2407  1.0000  -4.0605   0.0000   0.0000   0.0000   0.2865
   9.700   1.3541   0.03376   0.02552  -0.0641  0.2342  1.0000  -4.1117   0.0000   0.0000   0.0000   0.2853
   9.800   1.3585   0.03417   0.02599  -0.0632  0.2268  1.0000  -4.1996   0.0000   0.0000   0.0000   0.2843
   9.900   1.3676   0.03458   0.02621  -0.0629  0.2191  1.0000  -4.3259   0.0000   0.0000   0.0000   0.2836
  10.000   1.3693   0.03522   0.02701  -0.0617  0.2124  1.0000  -4.3914   0.0000   0.0000   0.0000   0.2826
  10.100   1.3720   0.03566   0.02753  -0.0606  0.2052  1.0000  -4.4693   0.0000   0.0000   0.0000   0.2815
  10.200   1.3788   0.03600   0.02772  -0.0600  0.1978  1.0000  -4.5839   0.0000   0.0000   0.0000   0.2807
  10.300   1.3818   0.03674   0.02852  -0.0590  0.1912  1.0000  -4.6613   0.0000   0.0000   0.0000   0.2797
  10.400   1.3830   0.03729   0.02920  -0.0577  0.1849  1.0000  -4.7267   0.0000   0.0000   0.0000   0.2786
  10.500   1.3878   0.03774   0.02960  -0.0569  0.1785  1.0000  -4.8233   0.0000   0.0000   0.0000   0.2777
  10.600   1.3971   0.03873   0.03044  -0.0569  0.1716  1.0000  -4.9440   0.0000   0.0000   0.0000   0.2773
  10.700   1.3967   0.03947   0.03140  -0.0554  0.1672  1.0000  -4.9909   0.0000   0.0000   0.0000   0.2761
  10.800   1.3987   0.04018   0.03222  -0.0543  0.1620  1.0000  -5.0589   0.0000   0.0000   0.0000   0.2751
  10.900   1.4038   0.04075   0.03274  -0.0536  0.1566  1.0000  -5.1557   0.0000   0.0000   0.0000   0.2743
  11.000   1.4147   0.04195   0.03375  -0.0538  0.1500  1.0000  -5.2882   0.0000   0.0000   0.0000   0.2740
  11.100   1.4125   0.04265   0.03468  -0.0522  0.1469  1.0000  -5.3256   0.0000   0.0000   0.0000   0.2728
  11.200   1.4116   0.04338   0.03556  -0.0508  0.1430  1.0000  -5.3738   0.0000   0.0000   0.0000   0.2717
  11.300   1.4124   0.04399   0.03624  -0.0497  0.1389  1.0000  -5.4405   0.0000   0.0000   0.0000   0.2707
  11.400   1.4163   0.04446   0.03665  -0.0489  0.1344  1.0000  -5.5368   0.0000   0.0000   0.0000   0.2699
  11.500   1.4278   0.04596   0.03796  -0.0494  0.1285  1.0000  -5.6725   0.0000   0.0000   0.0000   0.2697
  11.600   1.4255   0.04679   0.03900  -0.0479  0.1266  1.0000  -5.7054   0.0000   0.0000   0.0000   0.2686
  11.700   1.4233   0.04770   0.04008  -0.0464  0.1244  1.0000  -5.7389   0.0000   0.0000   0.0000   0.2675
  11.800   1.4214   0.04866   0.04119  -0.0450  0.1222  1.0000  -5.7745   0.0000   0.0000   0.0000   0.2664
  11.900   1.4201   0.04962   0.04226  -0.0438  0.1198  1.0000  -5.8162   0.0000   0.0000   0.0000   0.2654
  12.000   1.4200   0.05051   0.04322  -0.0427  0.1173  1.0000  -5.8689   0.0000   0.0000   0.0000   0.2645
  12.100   1.4222   0.05125   0.04397  -0.0419  0.1144  1.0000  -5.9449   0.0000   0.0000   0.0000   0.2637
  12.200   1.4369   0.05269   0.04520  -0.0427  0.1088  1.0000  -6.1099   0.0000   0.0000   0.0000   0.2638
  12.300   1.4334   0.05413   0.04676  -0.0415  0.1071  1.0000  -6.1295   0.0000   0.0000   0.0000   0.2629
  12.400   1.4272   0.05503   0.04781  -0.0400  0.1061  1.0000  -6.1386   0.0000   0.0000   0.0000   0.2618
  12.500   1.4211   0.05604   0.04897  -0.0386  0.1050  1.0000  -6.1469   0.0000   0.0000   0.0000   0.2608
  12.600   1.4151   0.05715   0.05022  -0.0374  0.1037  1.0000  -6.1548   0.0000   0.0000   0.0000   0.2599
  12.700   1.4093   0.05833   0.05153  -0.0363  0.1024  1.0000  -6.1635   0.0000   0.0000   0.0000   0.2591
  12.800   1.4038   0.05956   0.05288  -0.0353  0.1010  1.0000  -6.1741   0.0000   0.0000   0.0000   0.2583
  12.900   1.3983   0.06086   0.05429  -0.0345  0.0997  1.0000  -6.1834   0.0000   0.0000   0.0000   0.2577
  13.000   1.3927   0.06224   0.05578  -0.0338  0.0985  1.0000  -6.1912   0.0000   0.0000   0.0000   0.2571
  13.100   1.3874   0.06371   0.05735  -0.0332  0.0974  1.0000  -6.1987   0.0000   0.0000   0.0000   0.2566
  13.200   1.3824   0.06521   0.05894  -0.0326  0.0963  1.0000  -6.2076   0.0000   0.0000   0.0000   0.2561
  13.300   1.3778   0.06672   0.06053  -0.0322  0.0952  1.0000  -6.2198   0.0000   0.0000   0.0000   0.2557
  13.400   1.3740   0.06821   0.06209  -0.0319  0.0940  1.0000  -6.2386   0.0000   0.0000   0.0000   0.2554
  13.500   1.3738   0.06951   0.06342  -0.0316  0.0924  1.0000  -6.2853   0.0000   0.0000   0.0000   0.2550
  13.600   1.3824   0.07099   0.06489  -0.0315  0.0895  1.0000  -6.3967   0.0000   0.0000   0.0000   0.2546
  13.700   1.3764   0.07350   0.06748  -0.0314  0.0885  1.0000  -6.3838   0.0000   0.0000   0.0000   0.2545
  13.800   1.3671   0.07593   0.07001  -0.0314  0.0882  1.0000  -6.3484   0.0000   0.0000   0.0000   0.2545
  13.900   1.3570   0.07832   0.07251  -0.0315  0.0880  1.0000  -6.3078   0.0000   0.0000   0.0000   0.2546
  14.000   1.3464   0.08070   0.07500  -0.0318  0.0879  1.0000  -6.2645   0.0000   0.0000   0.0000   0.2548
  14.100   1.3357   0.08309   0.07749  -0.0322  0.0879  1.0000  -6.2189   0.0000   0.0000   0.0000   0.2551
  14.200   1.3247   0.08550   0.07992  -0.0328  0.0880  1.0000  -6.1694   0.0000   0.0000   0.0000   0.2556
  14.300   1.3134   0.08795   0.08247  -0.0335  0.0881  1.0000  -6.1189   0.0000   0.0000   0.0000   0.2562
  14.400   1.3011   0.09044   0.08506  -0.0345  0.0885  1.0000  -6.0605   0.0000   0.0000   0.0000   0.2570
  14.500   1.1553   0.11685   0.11191  -0.0531  0.1108  1.0000  -4.6597   0.0000   0.0000   0.0000   0.2769
  14.600   1.1508   0.11967   0.11473  -0.0542  0.1098  1.0000  -4.6432   0.0000   0.0000   0.0000   0.2779
  14.700   1.1462   0.12266   0.11771  -0.0553  0.1088  1.0000  -4.6234   0.0000   0.0000   0.0000   0.2789
  14.900   0.9845   0.17446   0.16883  -0.0893  0.1424  1.0000  -2.5106   0.0000   0.0000   0.0000   0.3237
  15.000   0.9833   0.17720   0.17158  -0.0906  0.1431  1.0000  -2.4877   0.0000   0.0000   0.0000   0.3250


