xflr5 v6.61

 Calculated polar for: SD7032-099-88

 1 1 Reynolds number fixed          Mach number fixed         

 xtrf =   1.000 (top)        1.000 (bottom)
 Mach =   0.000     Re =     0.475 e 6     Ncrit =   9.000

  alpha     CL        CD       CDp       Cm    Top Xtr Bot Xtr   Cpmin    Chinge    XCp    
 ------- -------- --------- --------- -------- ------- ------- -------- --------- ---------
 -10.000  -0.3140   0.10789   0.10551  -0.0370  1.0000  0.0172  -1.8448   0.0000   0.0000   0.0000   0.1222
  -9.900  -0.3128   0.10665   0.10428  -0.0373  1.0000  0.0172  -1.8475   0.0000   0.0000   0.0000   0.1208
  -9.800  -0.3118   0.10542   0.10306  -0.0376  1.0000  0.0172  -1.8502   0.0000   0.0000   0.0000   0.1196
  -9.700  -0.3109   0.10419   0.10184  -0.0379  1.0000  0.0172  -1.8531   0.0000   0.0000   0.0000   0.1186
  -9.600  -0.3102   0.10297   0.10063  -0.0381  1.0000  0.0172  -1.8561   0.0000   0.0000   0.0000   0.1177
  -9.500  -0.3097   0.10177   0.09944  -0.0383  1.0000  0.0172  -1.8593   0.0000   0.0000   0.0000   0.1170
  -9.400  -0.3094   0.10059   0.09828  -0.0384  1.0000  0.0172  -1.8630   0.0000   0.0000   0.0000   0.1166
  -9.300  -0.3094   0.09943   0.09714  -0.0384  1.0000  0.0172  -1.8671   0.0000   0.0000   0.0000   0.1166
  -9.200  -0.3097   0.09831   0.09603  -0.0384  1.0000  0.0172  -1.8717   0.0000   0.0000   0.0000   0.1169
  -9.100  -0.3105   0.09723   0.09496  -0.0383  1.0000  0.0172  -1.8770   0.0000   0.0000   0.0000   0.1178
  -9.000  -0.3117   0.09620   0.09395  -0.0380  1.0000  0.0172  -1.8830   0.0000   0.0000   0.0000   0.1192
  -8.900  -0.3136   0.09524   0.09301  -0.0376  1.0000  0.0172  -1.8898   0.0000   0.0000   0.0000   0.1214
  -8.800  -0.3162   0.09435   0.09214  -0.0371  1.0000  0.0172  -1.8975   0.0000   0.0000   0.0000   0.1243
  -8.700  -0.3194   0.09353   0.09133  -0.0364  1.0000  0.0172  -1.9060   0.0000   0.0000   0.0000   0.1279
  -8.600  -0.3231   0.09277   0.09059  -0.0356  1.0000  0.0172  -1.9153   0.0000   0.0000   0.0000   0.1320
  -8.500  -0.3273   0.09205   0.08989  -0.0346  1.0000  0.0172  -1.9253   0.0000   0.0000   0.0000   0.1364
  -8.400  -0.3319   0.09136   0.08923  -0.0337  1.0000  0.0172  -1.9359   0.0000   0.0000   0.0000   0.1410
  -8.300  -0.3326   0.09022   0.08810  -0.0339  0.9997  0.0173  -1.9437   0.0000   0.0000   0.0000   0.1408
  -8.200  -0.3264   0.08825   0.08613  -0.0361  0.9988  0.0173  -1.9539   0.0000   0.0000   0.0000   0.1320
  -8.000  -0.3268   0.08088   0.07880  -0.0423  0.9955  0.0177  -2.1899   0.0000   0.0000   0.0000   0.1130
  -7.900  -0.3233   0.07837   0.07629  -0.0450  0.9937  0.0180  -2.2262   0.0000   0.0000   0.0000   0.1033
  -7.800  -0.3178   0.07620   0.07412  -0.0477  0.9920  0.0181  -2.2405   0.0000   0.0000   0.0000   0.0923
  -7.700  -0.3112   0.07418   0.07211  -0.0505  0.9905  0.0183  -2.2423   0.0000   0.0000   0.0000   0.0802
  -7.600  -0.3067   0.07259   0.07052  -0.0523  0.9881  0.0184  -2.2342   0.0000   0.0000   0.0000   0.0721
  -7.500  -0.3020   0.07095   0.06889  -0.0542  0.9853  0.0185  -2.2287   0.0000   0.0000   0.0000   0.0630
  -7.400  -0.2955   0.06910   0.06704  -0.0569  0.9826  0.0186  -2.2223   0.0000   0.0000   0.0000   0.0501
  -7.300  -0.2868   0.06699   0.06492  -0.0603  0.9803  0.0188  -2.2153   0.0000   0.0000   0.0000   0.0323
  -7.200  -0.2775   0.06476   0.06268  -0.0641  0.9783  0.0189  -2.2141   0.0000   0.0000   0.0000   0.0112
  -7.100  -0.2673   0.06231   0.06022  -0.0686  0.9766  0.0191  -2.2187   0.0000   0.0000   0.0000  -0.0144
  -7.000  -0.2561   0.05966   0.05755  -0.0734  0.9750  0.0193  -2.2293   0.0000   0.0000   0.0000  -0.0445
  -6.900  -0.2443   0.05687   0.05473  -0.0783  0.9737  0.0195  -2.2444   0.0000   0.0000   0.0000  -0.0787
  -6.800  -0.2320   0.05403   0.05183  -0.0831  0.9726  0.0197  -2.2627   0.0000   0.0000   0.0000  -0.1167
  -6.700  -0.2194   0.05126   0.04901  -0.0876  0.9715  0.0199  -2.2803   0.0000   0.0000   0.0000  -0.1580
  -6.600  -0.2093   0.04883   0.04652  -0.0909  0.9695  0.0201  -2.2974   0.0000   0.0000   0.0000  -0.1935
  -6.500  -0.2041   0.04691   0.04455  -0.0924  0.9655  0.0203  -2.3156   0.0000   0.0000   0.0000  -0.2122
  -6.400  -0.1959   0.04480   0.04237  -0.0946  0.9624  0.0205  -2.3314   0.0000   0.0000   0.0000  -0.2423
  -6.300  -0.1866   0.04270   0.04019  -0.0967  0.9596  0.0208  -2.3456   0.0000   0.0000   0.0000  -0.2780
  -6.200  -0.1769   0.04065   0.03805  -0.0987  0.9571  0.0212  -2.3586   0.0000   0.0000   0.0000  -0.3181
  -6.100  -0.1670   0.03868   0.03598  -0.1004  0.9547  0.0215  -2.3707   0.0000   0.0000   0.0000  -0.3621
  -6.000  -0.1572   0.03681   0.03401  -0.1018  0.9525  0.0219  -2.3822   0.0000   0.0000   0.0000  -0.4092
  -5.900  -0.1474   0.03507   0.03216  -0.1030  0.9502  0.0224  -2.3921   0.0000   0.0000   0.0000  -0.4608
  -5.800  -0.1380   0.03350   0.03047  -0.1038  0.9477  0.0228  -2.3996   0.0000   0.0000   0.0000  -0.5153
  -5.700  -0.1327   0.03227   0.02915  -0.1035  0.9438  0.0232  -2.4063   0.0000   0.0000   0.0000  -0.5437
  -5.600  -0.1255   0.03102   0.02779  -0.1035  0.9402  0.0236  -2.4109   0.0000   0.0000   0.0000  -0.5883
  -5.500  -0.1174   0.02977   0.02642  -0.1035  0.9369  0.0240  -2.4140   0.0000   0.0000   0.0000  -0.6465
  -5.400  -0.1128   0.02371   0.01969  -0.1031  0.9325  0.0162  -2.9689   0.0000   0.0000   0.0000  -0.6803
  -5.300  -0.1059   0.02138   0.01710  -0.1030  0.9297  0.0152  -3.0726   0.0000   0.0000   0.0000  -0.7405
  -5.200  -0.0973   0.01961   0.01507  -0.1028  0.9273  0.0145  -3.1538   0.0000   0.0000   0.0000  -0.8251
  -5.100  -0.0879   0.01810   0.01331  -0.1026  0.9248  0.0140  -3.2246   0.0000   0.0000   0.0000  -0.9377
  -5.000  -0.0791   0.01695   0.01198  -0.1021  0.9220  0.0137  -3.2651   0.0000   0.0000   0.0000  -1.0633
  -4.900  -0.0698   0.01605   0.01093  -0.1017  0.9190  0.0136  -3.2765   0.0000   0.0000   0.0000  -1.2314
  -4.800  -0.0601   0.01534   0.01010  -0.1013  0.9161  0.0137  -3.2652   0.0000   0.0000   0.0000  -1.4643
  -4.700  -0.0501   0.01474   0.00941  -0.1010  0.9132  0.0139  -3.2399   0.0000   0.0000   0.0000  -1.7993
  -4.600  -0.0399   0.01423   0.00882  -0.1007  0.9105  0.0142  -3.2056   0.0000   0.0000   0.0000  -2.3143
  -4.500  -0.0296   0.01378   0.00831  -0.1004  0.9080  0.0147  -3.1658   0.0000   0.0000   0.0000  -3.1970
  -4.400  -0.0192   0.01341   0.00787  -0.1001  0.9056  0.0153  -3.1214   0.0000   0.0000   0.0000  -5.0517
  -4.300  -0.0085   0.01315   0.00755  -0.0999  0.9032  0.0161  -3.0669   0.0000   0.0000   0.0000  -11.6974
  -4.200   0.0025   0.01306   0.00741  -0.0997  0.9007  0.0168  -2.9919   0.0000   0.0000   0.0000  41.3202
  -4.100   0.0132   0.01312   0.00746  -0.0995  0.8978  0.0172  -2.8950   0.0000   0.0000   0.0000   7.8813
  -4.000   0.0218   0.01175   0.00596  -0.0991  0.8946  0.0190  -2.9406   0.0000   0.0000   0.0000   4.8563
  -3.900   0.0320   0.01144   0.00565  -0.0989  0.8915  0.0201  -2.8617   0.0000   0.0000   0.0000   3.3777
  -3.800   0.0425   0.01125   0.00545  -0.0987  0.8883  0.0212  -2.7726   0.0000   0.0000   0.0000   2.6011
  -3.700   0.0531   0.01108   0.00525  -0.0985  0.8854  0.0225  -2.6853   0.0000   0.0000   0.0000   2.1283
  -3.600   0.0638   0.01099   0.00514  -0.0983  0.8825  0.0241  -2.5859   0.0000   0.0000   0.0000   1.8088
  -3.500   0.0748   0.01095   0.00509  -0.0982  0.8798  0.0257  -2.4818   0.0000   0.0000   0.0000   1.5784
  -3.400   0.0859   0.01101   0.00513  -0.0980  0.8771  0.0267  -2.3738   0.0000   0.0000   0.0000   1.4039
  -3.300   0.0959   0.01041   0.00446  -0.0978  0.8738  0.0289  -2.3294   0.0000   0.0000   0.0000   1.2810
  -3.200   0.1064   0.01005   0.00406  -0.0976  0.8702  0.0311  -2.2623   0.0000   0.0000   0.0000   1.1775
  -3.100   0.1171   0.00985   0.00385  -0.0975  0.8666  0.0329  -2.1775   0.0000   0.0000   0.0000   1.0910
  -3.000   0.1279   0.00970   0.00368  -0.0973  0.8632  0.0347  -2.0872   0.0000   0.0000   0.0000   1.0184
  -2.900   0.1388   0.00959   0.00355  -0.0972  0.8599  0.0369  -1.9930   0.0000   0.0000   0.0000   0.9568
  -2.800   0.1497   0.00949   0.00342  -0.0970  0.8568  0.0388  -1.9006   0.0000   0.0000   0.0000   0.9038
  -2.600   0.1717   0.00931   0.00318  -0.0968  0.8499  0.0410  -1.7212   0.0000   0.0000   0.0000   0.8181
  -2.500   0.1827   0.00907   0.00289  -0.0967  0.8459  0.0452  -1.6481   0.0000   0.0000   0.0000   0.7831
  -2.400   0.1937   0.00890   0.00273  -0.0966  0.8419  0.0518  -1.5668   0.0000   0.0000   0.0000   0.7520
  -2.300   0.2047   0.00873   0.00257  -0.0964  0.8380  0.0656  -1.4831   0.0000   0.0000   0.0000   0.7242
  -2.200   0.2154   0.00843   0.00245  -0.0964  0.8343  0.1129  -1.4022   0.0000   0.0000   0.0000   0.7003
  -2.100   0.2262   0.00821   0.00236  -0.0964  0.8307  0.1598  -1.3205   0.0000   0.0000   0.0000   0.6786
  -2.000   0.2370   0.00803   0.00231  -0.0964  0.8266  0.2010  -1.2539   0.0000   0.0000   0.0000   0.6589
  -1.900   0.2478   0.00786   0.00227  -0.0964  0.8221  0.2407  -1.1873   0.0000   0.0000   0.0000   0.6409
  -1.800   0.2586   0.00771   0.00222  -0.0964  0.8176  0.2775  -1.1210   0.0000   0.0000   0.0000   0.6243
  -1.700   0.2694   0.00756   0.00216  -0.0963  0.8132  0.3166  -1.0553   0.0000   0.0000   0.0000   0.6089
  -1.600   0.2802   0.00741   0.00211  -0.0963  0.8090  0.3596  -0.9903   0.0000   0.0000   0.0000   0.5947
  -1.500   0.2910   0.00726   0.00208  -0.0962  0.8047  0.4055  -0.9262   0.0000   0.0000   0.0000   0.5816
  -1.400   0.3018   0.00712   0.00207  -0.0962  0.7998  0.4485  -0.8628   0.0000   0.0000   0.0000   0.5695
  -1.300   0.3125   0.00700   0.00205  -0.0961  0.7948  0.4899  -0.8003   0.0000   0.0000   0.0000   0.5581
  -1.200   0.3231   0.00688   0.00203  -0.0960  0.7898  0.5322  -0.7388   0.0000   0.0000   0.0000   0.5474
  -1.100   0.3336   0.00677   0.00202  -0.0958  0.7852  0.5763  -0.6782   0.0000   0.0000   0.0000   0.5373
  -1.000   0.3441   0.00667   0.00201  -0.0956  0.7804  0.6160  -0.6310   0.0000   0.0000   0.0000   0.5278
  -0.900   0.3545   0.00658   0.00202  -0.0954  0.7750  0.6523  -0.6100   0.0000   0.0000   0.0000   0.5189
  -0.800   0.3648   0.00650   0.00202  -0.0951  0.7696  0.6866  -0.6198   0.0000   0.0000   0.0000   0.5104
  -0.700   0.3748   0.00643   0.00202  -0.0947  0.7643  0.7198  -0.6295   0.0000   0.0000   0.0000   0.5023
  -0.600   0.3847   0.00639   0.00201  -0.0943  0.7592  0.7499  -0.6392   0.0000   0.0000   0.0000   0.4946
  -0.500   0.3947   0.00633   0.00203  -0.0939  0.7537  0.7761  -0.6488   0.0000   0.0000   0.0000   0.4873
  -0.400   0.4045   0.00629   0.00203  -0.0935  0.7478  0.7989  -0.6584   0.0000   0.0000   0.0000   0.4804
  -0.300   0.4140   0.00626   0.00202  -0.0930  0.7420  0.8201  -0.6679   0.0000   0.0000   0.0000   0.4737
  -0.200   0.4232   0.00624   0.00201  -0.0924  0.7367  0.8420  -0.6772   0.0000   0.0000   0.0000   0.4673
  -0.100   0.4321   0.00620   0.00201  -0.0917  0.7314  0.8647  -0.6865   0.0000   0.0000   0.0000   0.4611
   0.000   0.4405   0.00615   0.00200  -0.0909  0.7254  0.8886  -0.6962   0.0000   0.0000   0.0000   0.4552
   0.100   0.4488   0.00612   0.00198  -0.0900  0.7194  0.9144  -0.7058   0.0000   0.0000   0.0000   0.4493
   0.200   0.4594   0.00610   0.00194  -0.0897  0.7135  0.9426  -0.7170   0.0000   0.0000   0.0000   0.4438
   0.400   0.4916   0.00607   0.00185  -0.0917  0.7004  1.0000  -0.7458   0.0000   0.0000   0.0000   0.4349
   0.500   0.5026   0.00612   0.00184  -0.0916  0.6939  1.0000  -0.7570   0.0000   0.0000   0.0000   0.4306
   0.600   0.5135   0.00617   0.00183  -0.0916  0.6881  1.0000  -0.7693   0.0000   0.0000   0.0000   0.4265
   0.700   0.5247   0.00620   0.00184  -0.0916  0.6822  1.0000  -0.7817   0.0000   0.0000   0.0000   0.4226
   0.800   0.5357   0.00624   0.00184  -0.0915  0.6756  1.0000  -0.7942   0.0000   0.0000   0.0000   0.4189
   0.900   0.5465   0.00630   0.00184  -0.0915  0.6690  1.0000  -0.8072   0.0000   0.0000   0.0000   0.4152
   1.000   0.5574   0.00635   0.00184  -0.0914  0.6627  1.0000  -0.8208   0.0000   0.0000   0.0000   0.4117
   1.100   0.5685   0.00639   0.00185  -0.0914  0.6559  1.0000  -0.8346   0.0000   0.0000   0.0000   0.4084
   1.200   0.5793   0.00645   0.00186  -0.0913  0.6488  1.0000  -0.8483   0.0000   0.0000   0.0000   0.4052
   1.300   0.5900   0.00652   0.00187  -0.0912  0.6420  1.0000  -0.8619   0.0000   0.0000   0.0000   0.4020
   1.400   0.6011   0.00656   0.00188  -0.0911  0.6356  1.0000  -0.8758   0.0000   0.0000   0.0000   0.3991
   1.500   0.6120   0.00661   0.00191  -0.0911  0.6286  1.0000  -0.8898   0.0000   0.0000   0.0000   0.3962
   1.600   0.6227   0.00668   0.00192  -0.0910  0.6215  1.0000  -0.9050   0.0000   0.0000   0.0000   0.3933
   1.700   0.6334   0.00674   0.00194  -0.0909  0.6149  1.0000  -0.9203   0.0000   0.0000   0.0000   0.3906
   1.800   0.6444   0.00679   0.00196  -0.0909  0.6077  1.0000  -0.9358   0.0000   0.0000   0.0000   0.3880
   1.900   0.6551   0.00686   0.00198  -0.0907  0.6000  1.0000  -0.9511   0.0000   0.0000   0.0000   0.3855
   2.000   0.6656   0.00694   0.00200  -0.0906  0.5930  1.0000  -0.9664   0.0000   0.0000   0.0000   0.3830
   2.100   0.6766   0.00699   0.00203  -0.0906  0.5859  1.0000  -0.9821   0.0000   0.0000   0.0000   0.3807
   2.200   0.6873   0.00705   0.00206  -0.0905  0.5783  1.0000  -0.9976   0.0000   0.0000   0.0000   0.3783
   2.300   0.6977   0.00715   0.00209  -0.0904  0.5711  1.0000  -1.0129   0.0000   0.0000   0.0000   0.3761
   2.400   0.7087   0.00720   0.00212  -0.0903  0.5644  1.0000  -1.0287   0.0000   0.0000   0.0000   0.3739
   2.500   0.7194   0.00726   0.00215  -0.0902  0.5572  1.0000  -1.0444   0.0000   0.0000   0.0000   0.3718
   2.600   0.7300   0.00734   0.00219  -0.0901  0.5501  1.0000  -1.0600   0.0000   0.0000   0.0000   0.3698
   2.700   0.7406   0.00742   0.00223  -0.0900  0.5435  1.0000  -1.0765   0.0000   0.0000   0.0000   0.3678
   2.800   0.7514   0.00748   0.00226  -0.0900  0.5362  1.0000  -1.0943   0.0000   0.0000   0.0000   0.3658
   2.900   0.7619   0.00756   0.00230  -0.0898  0.5285  1.0000  -1.1118   0.0000   0.0000   0.0000   0.3639
   3.000   0.7723   0.00766   0.00235  -0.0897  0.5214  1.0000  -1.1293   0.0000   0.0000   0.0000   0.3621
   3.100   0.7831   0.00771   0.00241  -0.0897  0.5145  1.0000  -1.1473   0.0000   0.0000   0.0000   0.3603
   3.200   0.7937   0.00779   0.00246  -0.0895  0.5073  1.0000  -1.1651   0.0000   0.0000   0.0000   0.3585
   3.300   0.8040   0.00789   0.00251  -0.0894  0.5006  1.0000  -1.1827   0.0000   0.0000   0.0000   0.3568
   3.400   0.8148   0.00796   0.00256  -0.0893  0.4946  1.0000  -1.2008   0.0000   0.0000   0.0000   0.3552
   3.500   0.8255   0.00802   0.00261  -0.0893  0.4879  1.0000  -1.2188   0.0000   0.0000   0.0000   0.3536
   3.600   0.8359   0.00812   0.00266  -0.0891  0.4811  1.0000  -1.2367   0.0000   0.0000   0.0000   0.3520
   3.700   0.8461   0.00822   0.00272  -0.0890  0.4744  1.0000  -1.2545   0.0000   0.0000   0.0000   0.3504
   3.800   0.8569   0.00828   0.00278  -0.0889  0.4678  1.0000  -1.2746   0.0000   0.0000   0.0000   0.3489
   3.900   0.8674   0.00837   0.00283  -0.0888  0.4604  1.0000  -1.2951   0.0000   0.0000   0.0000   0.3474
   4.000   0.8774   0.00849   0.00290  -0.0886  0.4530  1.0000  -1.3153   0.0000   0.0000   0.0000   0.3460
   4.100   0.8880   0.00856   0.00296  -0.0886  0.4465  1.0000  -1.3361   0.0000   0.0000   0.0000   0.3445
   4.200   0.8985   0.00864   0.00302  -0.0885  0.4394  1.0000  -1.3569   0.0000   0.0000   0.0000   0.3432
   4.300   0.9087   0.00875   0.00309  -0.0883  0.4326  1.0000  -1.3776   0.0000   0.0000   0.0000   0.3418
   4.400   0.9189   0.00886   0.00316  -0.0882  0.4265  1.0000  -1.4013   0.0000   0.0000   0.0000   0.3404
   4.500   0.9296   0.00893   0.00326  -0.0881  0.4205  1.0000  -1.4258   0.0000   0.0000   0.0000   0.3392
   4.600   0.9400   0.00902   0.00334  -0.0880  0.4141  1.0000  -1.4499   0.0000   0.0000   0.0000   0.3379
   4.700   0.9500   0.00914   0.00341  -0.0878  0.4075  1.0000  -1.4738   0.0000   0.0000   0.0000   0.3366
   4.800   0.9603   0.00924   0.00349  -0.0877  0.4014  1.0000  -1.4981   0.0000   0.0000   0.0000   0.3354
   4.900   0.9707   0.00932   0.00357  -0.0876  0.3947  1.0000  -1.5251   0.0000   0.0000   0.0000   0.3342
   5.000   0.9808   0.00943   0.00365  -0.0874  0.3876  1.0000  -1.5535   0.0000   0.0000   0.0000   0.3330
   5.100   0.9905   0.00957   0.00374  -0.0872  0.3805  1.0000  -1.5833   0.0000   0.0000   0.0000   0.3318
   5.200   1.0011   0.00964   0.00382  -0.0871  0.3747  1.0000  -1.6183   0.0000   0.0000   0.0000   0.3306
   5.300   1.0113   0.00974   0.00391  -0.0870  0.3682  1.0000  -1.6528   0.0000   0.0000   0.0000   0.3295
   5.400   1.0211   0.00987   0.00400  -0.0868  0.3615  1.0000  -1.6869   0.0000   0.0000   0.0000   0.3284
   5.500   1.0311   0.01000   0.00409  -0.0866  0.3552  1.0000  -1.7214   0.0000   0.0000   0.0000   0.3273
   5.600   1.0414   0.01008   0.00418  -0.0865  0.3489  1.0000  -1.7568   0.0000   0.0000   0.0000   0.3262
   5.700   1.0513   0.01020   0.00428  -0.0863  0.3419  1.0000  -1.7917   0.0000   0.0000   0.0000   0.3252
   5.800   1.0608   0.01036   0.00438  -0.0861  0.3350  1.0000  -1.8260   0.0000   0.0000   0.0000   0.3241
   5.900   1.0711   0.01045   0.00451  -0.0860  0.3297  1.0000  -1.8619   0.0000   0.0000   0.0000   0.3231
   6.000   1.0813   0.01055   0.00460  -0.0858  0.3239  1.0000  -1.9015   0.0000   0.0000   0.0000   0.3221
   6.100   1.0910   0.01068   0.00471  -0.0856  0.3173  1.0000  -1.9431   0.0000   0.0000   0.0000   0.3210
   6.200   1.1002   0.01085   0.00483  -0.0853  0.3102  1.0000  -1.9840   0.0000   0.0000   0.0000   0.3200
   6.300   1.1105   0.01093   0.00493  -0.0852  0.3043  1.0000  -2.0276   0.0000   0.0000   0.0000   0.3191
   6.400   1.1202   0.01106   0.00504  -0.0850  0.2969  1.0000  -2.0702   0.0000   0.0000   0.0000   0.3181
   6.500   1.1293   0.01124   0.00516  -0.0847  0.2893  1.0000  -2.1117   0.0000   0.0000   0.0000   0.3171
   6.600   1.1392   0.01136   0.00528  -0.0846  0.2832  1.0000  -2.1551   0.0000   0.0000   0.0000   0.3162
   6.700   1.1491   0.01147   0.00539  -0.0844  0.2767  1.0000  -2.1988   0.0000   0.0000   0.0000   0.3153
   6.800   1.1584   0.01163   0.00551  -0.0841  0.2700  1.0000  -2.2416   0.0000   0.0000   0.0000   0.3143
   6.900   1.1674   0.01181   0.00566  -0.0838  0.2636  1.0000  -2.2862   0.0000   0.0000   0.0000   0.3134
   7.000   1.1775   0.01190   0.00577  -0.0837  0.2590  1.0000  -2.3387   0.0000   0.0000   0.0000   0.3125
   7.100   1.1872   0.01203   0.00590  -0.0835  0.2534  1.0000  -2.3905   0.0000   0.0000   0.0000   0.3116
   7.200   1.1963   0.01220   0.00603  -0.0832  0.2470  1.0000  -2.4412   0.0000   0.0000   0.0000   0.3107
   7.300   1.2051   0.01239   0.00619  -0.0829  0.2403  1.0000  -2.4955   0.0000   0.0000   0.0000   0.3098
   7.400   1.2150   0.01250   0.00634  -0.0827  0.2349  1.0000  -2.5568   0.0000   0.0000   0.0000   0.3090
   7.500   1.2242   0.01265   0.00648  -0.0824  0.2283  1.0000  -2.6166   0.0000   0.0000   0.0000   0.3081
   7.600   1.2327   0.01285   0.00664  -0.0821  0.2213  1.0000  -2.6747   0.0000   0.0000   0.0000   0.3072
   7.700   1.2419   0.01301   0.00679  -0.0818  0.2156  1.0000  -2.7351   0.0000   0.0000   0.0000   0.3064
   7.800   1.2514   0.01314   0.00693  -0.0816  0.2105  1.0000  -2.7970   0.0000   0.0000   0.0000   0.3055
   7.900   1.2603   0.01331   0.00708  -0.0813  0.2048  1.0000  -2.8865   0.0000   0.0000   0.0000   0.3047
   8.000   1.2687   0.01352   0.00726  -0.0809  0.1986  1.0000  -2.9790   0.0000   0.0000   0.0000   0.3038
   8.100   1.2776   0.01369   0.00742  -0.0806  0.1935  1.0000  -3.0751   0.0000   0.0000   0.0000   0.3030
   8.200   1.2868   0.01383   0.00758  -0.0803  0.1888  1.0000  -3.1745   0.0000   0.0000   0.0000   0.3022
   8.300   1.2955   0.01400   0.00775  -0.0800  0.1833  1.0000  -3.2898   0.0000   0.0000   0.0000   0.3014
   8.400   1.3035   0.01424   0.00794  -0.0795  0.1770  1.0000  -3.4025   0.0000   0.0000   0.0000   0.3005
   8.500   1.3119   0.01443   0.00812  -0.0792  0.1713  1.0000  -3.5191   0.0000   0.0000   0.0000   0.2997
   8.600   1.3208   0.01458   0.00829  -0.0789  0.1663  1.0000  -3.6410   0.0000   0.0000   0.0000   0.2989
   8.700   1.3290   0.01479   0.00848  -0.0785  0.1603  1.0000  -3.7593   0.0000   0.0000   0.0000   0.2981
   8.800   1.3363   0.01506   0.00869  -0.0779  0.1536  1.0000  -3.8735   0.0000   0.0000   0.0000   0.2973
   8.900   1.3446   0.01524   0.00889  -0.0775  0.1485  1.0000  -3.9955   0.0000   0.0000   0.0000   0.2965
   9.000   1.3531   0.01541   0.00907  -0.0772  0.1434  1.0000  -4.1200   0.0000   0.0000   0.0000   0.2957
   9.100   1.3606   0.01566   0.00931  -0.0767  0.1371  1.0000  -4.2354   0.0000   0.0000   0.0000   0.2949
   9.200   1.3672   0.01596   0.00956  -0.0761  0.1300  1.0000  -4.3478   0.0000   0.0000   0.0000   0.2940
   9.300   1.3755   0.01613   0.00976  -0.0757  0.1254  1.0000  -4.4741   0.0000   0.0000   0.0000   0.2932
   9.400   1.3830   0.01635   0.00997  -0.0752  0.1195  1.0000  -4.5971   0.0000   0.0000   0.0000   0.2924
   9.500   1.3893   0.01666   0.01023  -0.0745  0.1129  1.0000  -4.7129   0.0000   0.0000   0.0000   0.2915
   9.600   1.3960   0.01694   0.01049  -0.0739  0.1069  1.0000  -4.8314   0.0000   0.0000   0.0000   0.2907
   9.700   1.4033   0.01715   0.01071  -0.0734  0.1020  1.0000  -4.9569   0.0000   0.0000   0.0000   0.2899
   9.800   1.4093   0.01746   0.01098  -0.0727  0.0958  1.0000  -5.0740   0.0000   0.0000   0.0000   0.2890
   9.900   1.4141   0.01784   0.01131  -0.0718  0.0885  1.0000  -5.1824   0.0000   0.0000   0.0000   0.2881
  10.000   1.4207   0.01806   0.01155  -0.0711  0.0844  1.0000  -5.3056   0.0000   0.0000   0.0000   0.2872
  10.100   1.4259   0.01835   0.01181  -0.0703  0.0797  1.0000  -5.4202   0.0000   0.0000   0.0000   0.2863
  10.200   1.4296   0.01870   0.01213  -0.0692  0.0745  1.0000  -5.5241   0.0000   0.0000   0.0000   0.2852
  10.300   1.4322   0.01911   0.01250  -0.0679  0.0685  1.0000  -5.6187   0.0000   0.0000   0.0000   0.2841
  10.400   1.4383   0.01931   0.01273  -0.0672  0.0664  1.0000  -5.7431   0.0000   0.0000   0.0000   0.2833
  10.500   1.4433   0.01958   0.01301  -0.0663  0.0634  1.0000  -5.8595   0.0000   0.0000   0.0000   0.2823
  10.600   1.4472   0.01990   0.01332  -0.0653  0.0602  1.0000  -5.9690   0.0000   0.0000   0.0000   0.2814
  10.700   1.4504   0.02028   0.01367  -0.0642  0.0567  1.0000  -6.0726   0.0000   0.0000   0.0000   0.2804
  10.800   1.4528   0.02071   0.01409  -0.0630  0.0528  1.0000  -6.1689   0.0000   0.0000   0.0000   0.2793
  10.900   1.4565   0.02107   0.01446  -0.0620  0.0502  1.0000  -6.2759   0.0000   0.0000   0.0000   0.2784
  11.000   1.4625   0.02128   0.01471  -0.0614  0.0490  1.0000  -6.4058   0.0000   0.0000   0.0000   0.2776
  11.100   1.4676   0.02155   0.01500  -0.0606  0.0472  1.0000  -6.5288   0.0000   0.0000   0.0000   0.2768
  11.200   1.4719   0.02188   0.01533  -0.0598  0.0450  1.0000  -6.6460   0.0000   0.0000   0.0000   0.2759
  11.300   1.4754   0.02227   0.01570  -0.0589  0.0428  1.0000  -6.7575   0.0000   0.0000   0.0000   0.2750
  11.400   1.4782   0.02269   0.01611  -0.0579  0.0404  1.0000  -6.8631   0.0000   0.0000   0.0000   0.2741
  11.500   1.4804   0.02317   0.01659  -0.0568  0.0378  1.0000  -6.9613   0.0000   0.0000   0.0000   0.2732
  11.600   1.4818   0.02371   0.01716  -0.0557  0.0354  1.0000  -7.0509   0.0000   0.0000   0.0000   0.2722
  11.700   1.4869   0.02400   0.01748  -0.0550  0.0346  1.0000  -7.1782   0.0000   0.0000   0.0000   0.2715
  11.800   1.4921   0.02430   0.01785  -0.0544  0.0340  1.0000  -7.3108   0.0000   0.0000   0.0000   0.2708
  11.900   1.4969   0.02462   0.01821  -0.0538  0.0331  1.0000  -7.4364   0.0000   0.0000   0.0000   0.2700
  12.000   1.5012   0.02498   0.01860  -0.0531  0.0320  1.0000  -7.5581   0.0000   0.0000   0.0000   0.2693
  12.100   1.5049   0.02539   0.01903  -0.0523  0.0309  1.0000  -7.6750   0.0000   0.0000   0.0000   0.2685
  12.200   1.5080   0.02584   0.01949  -0.0515  0.0297  1.0000  -7.7871   0.0000   0.0000   0.0000   0.2678
  12.300   1.5107   0.02633   0.01999  -0.0507  0.0284  1.0000  -7.8956   0.0000   0.0000   0.0000   0.2670
  12.400   1.5130   0.02686   0.02052  -0.0499  0.0270  1.0000  -8.0003   0.0000   0.0000   0.0000   0.2663
  12.500   1.5146   0.02745   0.02112  -0.0491  0.0254  1.0000  -8.0975   0.0000   0.0000   0.0000   0.2655
  12.600   1.5153   0.02812   0.02182  -0.0482  0.0238  1.0000  -8.1834   0.0000   0.0000   0.0000   0.2647
  12.700   1.5168   0.02874   0.02247  -0.0474  0.0227  1.0000  -8.2778   0.0000   0.0000   0.0000   0.2640
  12.800   1.5214   0.02912   0.02289  -0.0469  0.0221  1.0000  -8.4054   0.0000   0.0000   0.0000   0.2633
  12.900   1.5252   0.02958   0.02339  -0.0463  0.0213  1.0000  -8.5249   0.0000   0.0000   0.0000   0.2627
  13.000   1.5282   0.03011   0.02394  -0.0458  0.0201  1.0000  -8.6356   0.0000   0.0000   0.0000   0.2621
  13.100   1.5300   0.03074   0.02459  -0.0451  0.0187  1.0000  -8.7345   0.0000   0.0000   0.0000   0.2615
  13.200   1.5302   0.03152   0.02535  -0.0444  0.0172  1.0000  -8.8180   0.0000   0.0000   0.0000   0.2608
  13.300   1.5289   0.03244   0.02627  -0.0436  0.0152  1.0000  -8.8824   0.0000   0.0000   0.0000   0.2601
  13.400   1.5290   0.03327   0.02712  -0.0430  0.0137  1.0000  -8.9542   0.0000   0.0000   0.0000   0.2595
  13.500   1.5295   0.03408   0.02796  -0.0424  0.0123  1.0000  -9.0302   0.0000   0.0000   0.0000   0.2589
  13.600   1.5275   0.03512   0.02899  -0.0418  0.0108  1.0000  -9.0829   0.0000   0.0000   0.0000   0.2584
  13.700   1.5228   0.03646   0.03034  -0.0411  0.0093  1.0000  -9.0989   0.0000   0.0000   0.0000   0.2578
  13.800   1.5191   0.03776   0.03169  -0.0404  0.0084  1.0000  -9.1148   0.0000   0.0000   0.0000   0.2572
  13.900   1.5189   0.03873   0.03271  -0.0401  0.0079  1.0000  -9.1788   0.0000   0.0000   0.0000   0.2568
  14.000   1.5181   0.03979   0.03382  -0.0397  0.0074  1.0000  -9.2371   0.0000   0.0000   0.0000   0.2564
  14.100   1.5167   0.04093   0.03500  -0.0394  0.0070  1.0000  -9.2915   0.0000   0.0000   0.0000   0.2560
  14.200   1.5150   0.04213   0.03624  -0.0391  0.0066  1.0000  -9.3429   0.0000   0.0000   0.0000   0.2556
  14.300   1.5128   0.04342   0.03757  -0.0389  0.0063  1.0000  -9.3886   0.0000   0.0000   0.0000   0.2553
  14.400   1.5099   0.04480   0.03899  -0.0387  0.0060  1.0000  -9.4264   0.0000   0.0000   0.0000   0.2550
  14.500   1.5060   0.04634   0.04059  -0.0386  0.0057  1.0000  -9.4484   0.0000   0.0000   0.0000   0.2548
  14.600   1.5009   0.04809   0.04240  -0.0386  0.0054  1.0000  -9.4514   0.0000   0.0000   0.0000   0.2547
  14.700   1.4946   0.05004   0.04442  -0.0387  0.0052  1.0000  -9.4368   0.0000   0.0000   0.0000   0.2546
  14.800   1.4871   0.05220   0.04666  -0.0389  0.0050  1.0000  -9.4088   0.0000   0.0000   0.0000   0.2547
  14.900   1.4833   0.05395   0.04847  -0.0392  0.0049  1.0000  -9.4280   0.0000   0.0000   0.0000   0.2547
  15.000   1.4815   0.05545   0.05003  -0.0395  0.0048  1.0000  -9.4747   0.0000   0.0000   0.0000   0.2547


