xflr5 v6.61

 Calculated polar for: SD8020-010-88

 1 1 Reynolds number fixed          Mach number fixed         

 xtrf =   1.000 (top)        1.000 (bottom)
 Mach =   0.000     Re =     0.150 e 6     Ncrit =   9.000

  alpha     CL        CD       CDp       Cm    Top Xtr Bot Xtr   Cpmin    Chinge    XCp    
 ------- -------- --------- --------- -------- ------- ------- -------- --------- ---------
 -10.000  -0.9078   0.04294   0.03731  -0.0292  1.0000  0.0357  -5.3017   0.0000   0.0000   0.0000   0.2087
  -9.900  -0.9082   0.04185   0.03605  -0.0281  1.0000  0.0360  -5.2806   0.0000   0.0000   0.0000   0.2100
  -9.800  -0.9078   0.04081   0.03491  -0.0271  1.0000  0.0364  -5.2549   0.0000   0.0000   0.0000   0.2112
  -9.700  -0.9069   0.03981   0.03382  -0.0261  1.0000  0.0369  -5.2249   0.0000   0.0000   0.0000   0.2125
  -9.600  -0.9054   0.03884   0.03275  -0.0250  1.0000  0.0374  -5.1916   0.0000   0.0000   0.0000   0.2136
  -9.500  -0.9034   0.03789   0.03169  -0.0240  1.0000  0.0379  -5.1555   0.0000   0.0000   0.0000   0.2148
  -9.400  -0.9008   0.03698   0.03069  -0.0231  1.0000  0.0385  -5.1151   0.0000   0.0000   0.0000   0.2159
  -9.300  -0.8970   0.03636   0.02999  -0.0222  1.0000  0.0396  -5.0526   0.0000   0.0000   0.0000   0.2168
  -9.200  -0.8920   0.03591   0.02950  -0.0214  1.0000  0.0409  -4.9746   0.0000   0.0000   0.0000   0.2177
  -9.100  -0.8873   0.03542   0.02893  -0.0206  1.0000  0.0424  -4.9032   0.0000   0.0000   0.0000   0.2185
  -9.000  -0.8827   0.03486   0.02828  -0.0198  1.0000  0.0437  -4.8394   0.0000   0.0000   0.0000   0.2195
  -8.900  -0.8781   0.03422   0.02752  -0.0189  1.0000  0.0449  -4.7819   0.0000   0.0000   0.0000   0.2205
  -8.800  -0.8733   0.03352   0.02670  -0.0179  1.0000  0.0459  -4.7285   0.0000   0.0000   0.0000   0.2215
  -8.700  -0.8684   0.03276   0.02581  -0.0170  1.0000  0.0466  -4.6775   0.0000   0.0000   0.0000   0.2226
  -8.600  -0.8632   0.03199   0.02490  -0.0161  1.0000  0.0472  -4.6256   0.0000   0.0000   0.0000   0.2236
  -8.500  -0.8574   0.03134   0.02413  -0.0152  1.0000  0.0477  -4.5657   0.0000   0.0000   0.0000   0.2246
  -8.400  -0.8512   0.03083   0.02350  -0.0144  1.0000  0.0482  -4.4980   0.0000   0.0000   0.0000   0.2255
  -8.300  -0.8482   0.02895   0.02144  -0.0134  1.0000  0.0491  -4.4881   0.0000   0.0000   0.0000   0.2267
  -8.200  -0.8437   0.02720   0.01954  -0.0125  1.0000  0.0504  -4.4625   0.0000   0.0000   0.0000   0.2277
  -8.100  -0.8377   0.02609   0.01836  -0.0118  1.0000  0.0518  -4.4046   0.0000   0.0000   0.0000   0.2286
  -8.000  -0.8311   0.02536   0.01760  -0.0111  1.0000  0.0532  -4.3293   0.0000   0.0000   0.0000   0.2294
  -7.900  -0.8242   0.02487   0.01710  -0.0105  1.0000  0.0549  -4.2435   0.0000   0.0000   0.0000   0.2301
  -7.800  -0.8172   0.02456   0.01677  -0.0098  1.0000  0.0570  -4.1502   0.0000   0.0000   0.0000   0.2309
  -7.700  -0.8100   0.02425   0.01644  -0.0092  1.0000  0.0594  -4.0590   0.0000   0.0000   0.0000   0.2317
  -7.600  -0.8026   0.02389   0.01602  -0.0085  1.0000  0.0618  -3.9839   0.0000   0.0000   0.0000   0.2325
  -7.500  -0.7949   0.02347   0.01552  -0.0078  1.0000  0.0639  -3.9198   0.0000   0.0000   0.0000   0.2334
  -7.400  -0.7870   0.02303   0.01500  -0.0071  1.0000  0.0658  -3.8575   0.0000   0.0000   0.0000   0.2342
  -7.300  -0.7789   0.02269   0.01457  -0.0065  1.0000  0.0672  -3.7927   0.0000   0.0000   0.0000   0.2351
  -7.200  -0.7733   0.02122   0.01313  -0.0056  1.0000  0.0713  -3.7660   0.0000   0.0000   0.0000   0.2362
  -7.100  -0.7670   0.02065   0.01260  -0.0048  1.0000  0.0750  -3.7040   0.0000   0.0000   0.0000   0.2373
  -7.000  -0.7599   0.02028   0.01223  -0.0041  1.0000  0.0793  -3.6361   0.0000   0.0000   0.0000   0.2383
  -6.900  -0.7523   0.01994   0.01183  -0.0034  1.0000  0.0842  -3.5695   0.0000   0.0000   0.0000   0.2393
  -6.800  -0.7440   0.01974   0.01145  -0.0027  1.0000  0.0882  -3.4960   0.0000   0.0000   0.0000   0.2402
  -6.700  -0.7394   0.01885   0.01069  -0.0017  1.0000  0.0951  -3.4466   0.0000   0.0000   0.0000   0.2416
  -6.600  -0.7322   0.01856   0.01042  -0.0010  1.0000  0.1012  -3.3725   0.0000   0.0000   0.0000   0.2426
  -6.500  -0.7242   0.01834   0.01013  -0.0004  1.0000  0.1073  -3.2973   0.0000   0.0000   0.0000   0.2436
  -6.400  -0.7175   0.01788   0.00969   0.0004  1.0000  0.1137  -3.2301   0.0000   0.0000   0.0000   0.2448
  -6.300  -0.7107   0.01757   0.00945   0.0011  1.0000  0.1207  -3.1541   0.0000   0.0000   0.0000   0.2458
  -6.200  -0.7026   0.01742   0.00925   0.0017  1.0000  0.1282  -3.0736   0.0000   0.0000   0.0000   0.2467
  -6.100  -0.6954   0.01709   0.00894   0.0024  1.0000  0.1356  -3.0002   0.0000   0.0000   0.0000   0.2478
  -6.000  -0.6884   0.01681   0.00873   0.0030  1.0000  0.1436  -2.9238   0.0000   0.0000   0.0000   0.2489
  -5.900  -0.6801   0.01669   0.00856   0.0036  1.0000  0.1523  -2.8432   0.0000   0.0000   0.0000   0.2499
  -5.800  -0.6735   0.01633   0.00829   0.0043  1.0000  0.1612  -2.7713   0.0000   0.0000   0.0000   0.2511
  -5.700  -0.6659   0.01613   0.00811   0.0049  1.0000  0.1705  -2.6944   0.0000   0.0000   0.0000   0.2522
  -5.600  -0.6582   0.01588   0.00786   0.0056  1.0000  0.1799  -2.6207   0.0000   0.0000   0.0000   0.2534
  -5.500  -0.6513   0.01558   0.00764   0.0063  1.0000  0.1893  -2.5487   0.0000   0.0000   0.0000   0.2546
  -5.300  -0.6366   0.01507   0.00723   0.0077  1.0000  0.2105  -2.4039   0.0000   0.0000   0.0000   0.2572
  -5.100  -0.6220   0.01461   0.00686   0.0090  1.0000  0.2348  -2.2605   0.0000   0.0000   0.0000   0.2598
  -5.000  -0.6143   0.01441   0.00667   0.0097  1.0000  0.2481  -2.1943   0.0000   0.0000   0.0000   0.2611
  -4.900  -0.6073   0.01417   0.00652   0.0104  1.0000  0.2612  -2.1364   0.0000   0.0000   0.0000   0.2626
  -4.800  -0.5999   0.01395   0.00635   0.0111  1.0000  0.2747  -2.0781   0.0000   0.0000   0.0000   0.2640
  -4.700  -0.5925   0.01376   0.00620   0.0118  1.0000  0.2892  -2.0223   0.0000   0.0000   0.0000   0.2655
  -4.600  -0.5854   0.01353   0.00606   0.0125  1.0000  0.3029  -1.9758   0.0000   0.0000   0.0000   0.2670
  -4.500  -0.5779   0.01336   0.00587   0.0132  1.0000  0.3180  -1.9284   0.0000   0.0000   0.0000   0.2686
  -4.400  -0.5707   0.01316   0.00575   0.0139  1.0000  0.3332  -1.8817   0.0000   0.0000   0.0000   0.2702
  -4.300  -0.5636   0.01298   0.00564   0.0147  1.0000  0.3486  -1.8352   0.0000   0.0000   0.0000   0.2719
  -4.200  -0.5562   0.01282   0.00553   0.0154  1.0000  0.3653  -1.7884   0.0000   0.0000   0.0000   0.2736
  -4.100  -0.5490   0.01266   0.00544   0.0161  1.0000  0.3827  -1.7422   0.0000   0.0000   0.0000   0.2753
  -4.000  -0.5421   0.01249   0.00536   0.0169  1.0000  0.3997  -1.6968   0.0000   0.0000   0.0000   0.2772
  -3.900  -0.5350   0.01234   0.00529   0.0176  1.0000  0.4172  -1.6513   0.0000   0.0000   0.0000   0.2792
  -3.800  -0.5278   0.01221   0.00521   0.0184  1.0000  0.4352  -1.6060   0.0000   0.0000   0.0000   0.2811
  -3.700  -0.5207   0.01207   0.00515   0.0192  1.0000  0.4533  -1.5611   0.0000   0.0000   0.0000   0.2831
  -3.600  -0.5137   0.01193   0.00510   0.0200  1.0000  0.4706  -1.5169   0.0000   0.0000   0.0000   0.2853
  -3.500  -0.5066   0.01181   0.00505   0.0208  1.0000  0.4879  -1.4727   0.0000   0.0000   0.0000   0.2875
  -3.400  -0.4995   0.01170   0.00500   0.0216  1.0000  0.5060  -1.4287   0.0000   0.0000   0.0000   0.2897
  -3.300  -0.4925   0.01161   0.00497   0.0224  1.0000  0.5249  -1.3852   0.0000   0.0000   0.0000   0.2921
  -3.200  -0.4857   0.01149   0.00495   0.0233  1.0000  0.5430  -1.3425   0.0000   0.0000   0.0000   0.2946
  -3.100  -0.4788   0.01140   0.00494   0.0241  1.0000  0.5613  -1.3001   0.0000   0.0000   0.0000   0.2972
  -3.000  -0.4719   0.01131   0.00492   0.0250  1.0000  0.5798  -1.2579   0.0000   0.0000   0.0000   0.2998
  -2.900  -0.4651   0.01124   0.00491   0.0259  1.0000  0.5984  -1.2161   0.0000   0.0000   0.0000   0.3025
  -2.800  -0.4583   0.01117   0.00491   0.0268  1.0000  0.6168  -1.1748   0.0000   0.0000   0.0000   0.3054
  -2.700  -0.4516   0.01109   0.00493   0.0277  1.0000  0.6348  -1.1339   0.0000   0.0000   0.0000   0.3084
  -2.600  -0.4449   0.01103   0.00494   0.0287  1.0000  0.6527  -1.0929   0.0000   0.0000   0.0000   0.3115
  -2.500  -0.4382   0.01098   0.00491   0.0296  1.0000  0.6707  -1.0624   0.0000   0.0000   0.0000   0.3147
  -2.400  -0.4316   0.01095   0.00493   0.0305  1.0000  0.6892  -1.0406   0.0000   0.0000   0.0000   0.3180
  -2.300  -0.4249   0.01090   0.00497   0.0315  1.0000  0.7065  -1.0187   0.0000   0.0000   0.0000   0.3215
  -2.200  -0.4182   0.01087   0.00501   0.0325  1.0000  0.7238  -0.9968   0.0000   0.0000   0.0000   0.3250
  -2.100  -0.4115   0.01085   0.00504   0.0334  1.0000  0.7417  -0.9753   0.0000   0.0000   0.0000   0.3287
  -1.900  -0.3977   0.01082   0.00514   0.0353  1.0000  0.7771  -0.9318   0.0000   0.0000   0.0000   0.3363
  -1.800  -0.3902   0.01083   0.00520   0.0361  1.0000  0.7944  -0.9094   0.0000   0.0000   0.0000   0.3402
  -1.700  -0.3824   0.01084   0.00527   0.0369  1.0000  0.8122  -0.8868   0.0000   0.0000   0.0000   0.3441
  -1.500  -0.3627   0.01093   0.00545   0.0377  1.0000  0.8488  -0.8367   0.0000   0.0000   0.0000   0.3516
  -1.400  -0.3486   0.01102   0.00557   0.0372  1.0000  0.8663  -0.8066   0.0000   0.0000   0.0000   0.3546
  -1.300  -0.3328   0.01113   0.00571   0.0364  1.0000  0.8831  -0.7748   0.0000   0.0000   0.0000   0.3573
  -1.200  -0.3146   0.01127   0.00586   0.0351  0.9998  0.8992  -0.7402   0.0000   0.0000   0.0000   0.3595
  -1.100  -0.2875   0.01147   0.00602   0.0321  0.9986  0.9106  -0.6999   0.0000   0.0000   0.0000   0.3595
  -1.000  -0.2628   0.01165   0.00619   0.0295  0.9964  0.9222  -0.6652   0.0000   0.0000   0.0000   0.3601
  -0.900  -0.2352   0.01185   0.00636   0.0263  0.9949  0.9300  -0.6278   0.0000   0.0000   0.0000   0.3599
  -0.800  -0.2084   0.01204   0.00653   0.0233  0.9931  0.9372  -0.5915   0.0000   0.0000   0.0000   0.3598
  -0.700  -0.1835   0.01224   0.00670   0.0206  0.9908  0.9449  -0.5587   0.0000   0.0000   0.0000   0.3604
  -0.600  -0.1566   0.01240   0.00685   0.0176  0.9891  0.9497  -0.5283   0.0000   0.0000   0.0000   0.3602
  -0.500  -0.1301   0.01250   0.00693   0.0146  0.9871  0.9535  -0.4985   0.0000   0.0000   0.0000   0.3602
  -0.400  -0.1042   0.01259   0.00700   0.0117  0.9846  0.9578  -0.4696   0.0000   0.0000   0.0000   0.3606
  -0.300  -0.0790   0.01267   0.00706   0.0090  0.9816  0.9625  -0.4450   0.0000   0.0000   0.0000   0.3616
  -0.200  -0.0549   0.01276   0.00714   0.0064  0.9782  0.9675  -0.4213   0.0000   0.0000   0.0000   0.3650
  -0.100  -0.0285   0.01281   0.00718   0.0034  0.9753  0.9708  -0.3962   0.0000   0.0000   0.0000   0.3681
   0.000   0.0001   0.01282   0.00719  -0.0000  0.9730  0.9730  -0.3716   0.0000   0.0000   0.0000   0.4807
   0.100   0.0287   0.01281   0.00718  -0.0035  0.9708  0.9753  -0.3962   0.0000   0.0000   0.0000   0.3687
   0.200   0.0550   0.01276   0.00714  -0.0064  0.9674  0.9782  -0.4212   0.0000   0.0000   0.0000   0.3653
   0.300   0.0792   0.01267   0.00706  -0.0090  0.9625  0.9816  -0.4449   0.0000   0.0000   0.0000   0.3618
   0.400   0.1043   0.01259   0.00700  -0.0118  0.9578  0.9846  -0.4699   0.0000   0.0000   0.0000   0.3607
   0.500   0.1303   0.01250   0.00693  -0.0146  0.9535  0.9871  -0.4989   0.0000   0.0000   0.0000   0.3604
   0.600   0.1568   0.01240   0.00685  -0.0176  0.9497  0.9892  -0.5287   0.0000   0.0000   0.0000   0.3603
   0.700   0.1837   0.01223   0.00670  -0.0207  0.9449  0.9909  -0.5591   0.0000   0.0000   0.0000   0.3605
   0.800   0.2087   0.01204   0.00653  -0.0234  0.9372  0.9932  -0.5914   0.0000   0.0000   0.0000   0.3600
   0.900   0.2355   0.01184   0.00636  -0.0264  0.9300  0.9950  -0.6276   0.0000   0.0000   0.0000   0.3600
   1.000   0.2631   0.01165   0.00618  -0.0295  0.9223  0.9965  -0.6650   0.0000   0.0000   0.0000   0.3603
   1.100   0.2877   0.01146   0.00602  -0.0321  0.9107  0.9987  -0.6998   0.0000   0.0000   0.0000   0.3596
   1.200   0.3149   0.01127   0.00586  -0.0352  0.8994  0.9999  -0.7402   0.0000   0.0000   0.0000   0.3596
   1.300   0.3327   0.01113   0.00571  -0.0364  0.8832  1.0000  -0.7743   0.0000   0.0000   0.0000   0.3573
   1.400   0.3485   0.01102   0.00557  -0.0372  0.8664  1.0000  -0.8061   0.0000   0.0000   0.0000   0.3546
   1.500   0.3627   0.01093   0.00545  -0.0377  0.8490  1.0000  -0.8362   0.0000   0.0000   0.0000   0.3516
   1.700   0.3823   0.01084   0.00526  -0.0369  0.8123  1.0000  -0.8862   0.0000   0.0000   0.0000   0.3441
   1.800   0.3901   0.01082   0.00520  -0.0361  0.7945  1.0000  -0.9089   0.0000   0.0000   0.0000   0.3402
   1.900   0.3977   0.01082   0.00514  -0.0353  0.7774  1.0000  -0.9313   0.0000   0.0000   0.0000   0.3363
   2.100   0.4115   0.01085   0.00504  -0.0334  0.7418  1.0000  -0.9749   0.0000   0.0000   0.0000   0.3287
   2.200   0.4181   0.01087   0.00500  -0.0325  0.7239  1.0000  -0.9964   0.0000   0.0000   0.0000   0.3250
   2.300   0.4248   0.01090   0.00497  -0.0315  0.7066  1.0000  -1.0182   0.0000   0.0000   0.0000   0.3214
   2.400   0.4315   0.01094   0.00493  -0.0305  0.6893  1.0000  -1.0402   0.0000   0.0000   0.0000   0.3180
   2.500   0.4381   0.01098   0.00491  -0.0296  0.6708  1.0000  -1.0623   0.0000   0.0000   0.0000   0.3147
   2.600   0.4448   0.01103   0.00494  -0.0287  0.6528  1.0000  -1.0923   0.0000   0.0000   0.0000   0.3115
   2.700   0.4516   0.01109   0.00493  -0.0277  0.6350  1.0000  -1.1333   0.0000   0.0000   0.0000   0.3084
   2.800   0.4583   0.01116   0.00491  -0.0268  0.6172  1.0000  -1.1743   0.0000   0.0000   0.0000   0.3054
   2.900   0.4651   0.01123   0.00491  -0.0259  0.5986  1.0000  -1.2156   0.0000   0.0000   0.0000   0.3025
   3.000   0.4719   0.01131   0.00492  -0.0250  0.5801  1.0000  -1.2574   0.0000   0.0000   0.0000   0.2998
   3.100   0.4788   0.01139   0.00494  -0.0241  0.5616  1.0000  -1.2995   0.0000   0.0000   0.0000   0.2972
   3.200   0.4856   0.01149   0.00495  -0.0233  0.5433  1.0000  -1.3419   0.0000   0.0000   0.0000   0.2946
   3.300   0.4924   0.01160   0.00496  -0.0224  0.5252  1.0000  -1.3846   0.0000   0.0000   0.0000   0.2921
   3.400   0.4995   0.01170   0.00500  -0.0216  0.5063  1.0000  -1.4281   0.0000   0.0000   0.0000   0.2897
   3.500   0.5066   0.01181   0.00505  -0.0208  0.4881  1.0000  -1.4720   0.0000   0.0000   0.0000   0.2875
   3.600   0.5137   0.01193   0.00510  -0.0200  0.4707  1.0000  -1.5162   0.0000   0.0000   0.0000   0.2853
   3.700   0.5206   0.01207   0.00514  -0.0192  0.4534  1.0000  -1.5605   0.0000   0.0000   0.0000   0.2831
   3.800   0.5277   0.01220   0.00521  -0.0184  0.4352  1.0000  -1.6053   0.0000   0.0000   0.0000   0.2811
   3.900   0.5349   0.01234   0.00528  -0.0176  0.4172  1.0000  -1.6507   0.0000   0.0000   0.0000   0.2791
   4.000   0.5420   0.01249   0.00536  -0.0169  0.3997  1.0000  -1.6961   0.0000   0.0000   0.0000   0.2772
   4.100   0.5490   0.01266   0.00544  -0.0161  0.3827  1.0000  -1.7415   0.0000   0.0000   0.0000   0.2753
   4.200   0.5561   0.01282   0.00553  -0.0153  0.3653  1.0000  -1.7877   0.0000   0.0000   0.0000   0.2735
   4.300   0.5635   0.01298   0.00564  -0.0146  0.3486  1.0000  -1.8345   0.0000   0.0000   0.0000   0.2719
   4.400   0.5707   0.01316   0.00575  -0.0139  0.3333  1.0000  -1.8810   0.0000   0.0000   0.0000   0.2702
   4.500   0.5778   0.01336   0.00587  -0.0132  0.3181  1.0000  -1.9277   0.0000   0.0000   0.0000   0.2685
   4.600   0.5854   0.01353   0.00606  -0.0125  0.3030  1.0000  -1.9751   0.0000   0.0000   0.0000   0.2670
   4.700   0.5924   0.01376   0.00620  -0.0118  0.2893  1.0000  -2.0216   0.0000   0.0000   0.0000   0.2655
   4.800   0.5999   0.01394   0.00635  -0.0111  0.2747  1.0000  -2.0759   0.0000   0.0000   0.0000   0.2640
   4.900   0.6073   0.01416   0.00652  -0.0104  0.2612  1.0000  -2.1342   0.0000   0.0000   0.0000   0.2626
   5.000   0.6142   0.01441   0.00667  -0.0097  0.2481  1.0000  -2.1921   0.0000   0.0000   0.0000   0.2611
   5.100   0.6219   0.01461   0.00685  -0.0090  0.2347  1.0000  -2.2588   0.0000   0.0000   0.0000   0.2598
   5.300   0.6366   0.01507   0.00722  -0.0077  0.2104  1.0000  -2.4023   0.0000   0.0000   0.0000   0.2572
   5.500   0.6513   0.01558   0.00764  -0.0063  0.1892  1.0000  -2.5469   0.0000   0.0000   0.0000   0.2546
   5.600   0.6582   0.01588   0.00785  -0.0056  0.1798  1.0000  -2.6188   0.0000   0.0000   0.0000   0.2534
   5.700   0.6659   0.01613   0.00811  -0.0049  0.1704  1.0000  -2.6924   0.0000   0.0000   0.0000   0.2522
   5.800   0.6734   0.01633   0.00829  -0.0043  0.1611  1.0000  -2.7692   0.0000   0.0000   0.0000   0.2511
   5.900   0.6801   0.01670   0.00856  -0.0036  0.1522  1.0000  -2.8410   0.0000   0.0000   0.0000   0.2499
   6.000   0.6884   0.01682   0.00874  -0.0030  0.1435  1.0000  -2.9213   0.0000   0.0000   0.0000   0.2489
   6.100   0.6953   0.01710   0.00895  -0.0024  0.1355  1.0000  -2.9974   0.0000   0.0000   0.0000   0.2478
   6.200   0.7026   0.01743   0.00926  -0.0017  0.1281  1.0000  -3.0708   0.0000   0.0000   0.0000   0.2467
   6.300   0.7106   0.01758   0.00946  -0.0011  0.1206  1.0000  -3.1511   0.0000   0.0000   0.0000   0.2458
   6.400   0.7174   0.01790   0.00970  -0.0004  0.1135  1.0000  -3.2268   0.0000   0.0000   0.0000   0.2447
   6.500   0.7242   0.01834   0.01013   0.0004  0.1072  1.0000  -3.2946   0.0000   0.0000   0.0000   0.2436
   6.600   0.7322   0.01857   0.01042   0.0010  0.1010  1.0000  -3.3697   0.0000   0.0000   0.0000   0.2426
   6.700   0.7393   0.01886   0.01070   0.0017  0.0950  1.0000  -3.4437   0.0000   0.0000   0.0000   0.2416
   6.800   0.7440   0.01976   0.01147   0.0027  0.0882  1.0000  -3.4932   0.0000   0.0000   0.0000   0.2402
   6.900   0.7523   0.01995   0.01184   0.0034  0.0842  1.0000  -3.5670   0.0000   0.0000   0.0000   0.2393
   7.000   0.7599   0.02030   0.01224   0.0041  0.0794  1.0000  -3.6338   0.0000   0.0000   0.0000   0.2383
   7.100   0.7670   0.02066   0.01261   0.0048  0.0752  1.0000  -3.7019   0.0000   0.0000   0.0000   0.2373
   7.200   0.7735   0.02120   0.01312   0.0056  0.0715  1.0000  -3.7651   0.0000   0.0000   0.0000   0.2363
   7.300   0.7789   0.02272   0.01459   0.0065  0.0673  1.0000  -3.7909   0.0000   0.0000   0.0000   0.2351
   7.400   0.7871   0.02305   0.01502   0.0071  0.0659  1.0000  -3.8562   0.0000   0.0000   0.0000   0.2343
   7.500   0.7950   0.02349   0.01554   0.0078  0.0641  1.0000  -3.9183   0.0000   0.0000   0.0000   0.2334
   7.600   0.8027   0.02392   0.01605   0.0085  0.0620  1.0000  -3.9821   0.0000   0.0000   0.0000   0.2326
   7.700   0.8101   0.02429   0.01648   0.0092  0.0596  1.0000  -4.0578   0.0000   0.0000   0.0000   0.2317
   7.800   0.8173   0.02460   0.01682   0.0098  0.0573  1.0000  -4.1486   0.0000   0.0000   0.0000   0.2309
   7.900   0.8243   0.02491   0.01714   0.0104  0.0551  1.0000  -4.2420   0.0000   0.0000   0.0000   0.2302
   8.000   0.8312   0.02537   0.01762   0.0111  0.0534  1.0000  -4.3292   0.0000   0.0000   0.0000   0.2294
   8.100   0.8379   0.02607   0.01835   0.0118  0.0520  1.0000  -4.4057   0.0000   0.0000   0.0000   0.2286
   8.200   0.8440   0.02712   0.01946   0.0125  0.0506  1.0000  -4.4663   0.0000   0.0000   0.0000   0.2278
   8.300   0.8487   0.02879   0.02126   0.0133  0.0492  1.0000  -4.4964   0.0000   0.0000   0.0000   0.2268
   8.400   0.8511   0.03091   0.02357   0.0144  0.0483  1.0000  -4.4963   0.0000   0.0000   0.0000   0.2256
   8.500   0.8574   0.03140   0.02419   0.0152  0.0478  1.0000  -4.5649   0.0000   0.0000   0.0000   0.2246
   8.600   0.8632   0.03204   0.02495   0.0161  0.0473  1.0000  -4.6255   0.0000   0.0000   0.0000   0.2236
   8.700   0.8684   0.03279   0.02584   0.0170  0.0467  1.0000  -4.6780   0.0000   0.0000   0.0000   0.2226
   8.800   0.8734   0.03355   0.02672   0.0179  0.0460  1.0000  -4.7292   0.0000   0.0000   0.0000   0.2216
   8.900   0.8782   0.03424   0.02754   0.0188  0.0450  1.0000  -4.7828   0.0000   0.0000   0.0000   0.2205
   9.000   0.8828   0.03488   0.02829   0.0197  0.0439  1.0000  -4.8402   0.0000   0.0000   0.0000   0.2195
   9.100   0.8874   0.03544   0.02896   0.0206  0.0425  1.0000  -4.9036   0.0000   0.0000   0.0000   0.2186
   9.200   0.8921   0.03594   0.02952   0.0214  0.0410  1.0000  -4.9744   0.0000   0.0000   0.0000   0.2177
   9.300   0.8970   0.03639   0.03002   0.0222  0.0397  1.0000  -5.0516   0.0000   0.0000   0.0000   0.2169
   9.400   0.9009   0.03701   0.03071   0.0230  0.0386  1.0000  -5.1150   0.0000   0.0000   0.0000   0.2159
   9.500   0.9035   0.03791   0.03172   0.0240  0.0380  1.0000  -5.1554   0.0000   0.0000   0.0000   0.2148
   9.600   0.9054   0.03886   0.03277   0.0250  0.0374  1.0000  -5.1912   0.0000   0.0000   0.0000   0.2137
   9.700   0.9070   0.03984   0.03385   0.0260  0.0369  1.0000  -5.2243   0.0000   0.0000   0.0000   0.2125
   9.800   0.9079   0.04084   0.03494   0.0271  0.0365  1.0000  -5.2542   0.0000   0.0000   0.0000   0.2113
   9.900   0.9083   0.04188   0.03608   0.0281  0.0361  1.0000  -5.2799   0.0000   0.0000   0.0000   0.2100
  10.000   0.9079   0.04296   0.03733   0.0292  0.0357  1.0000  -5.3011   0.0000   0.0000   0.0000   0.2087
  10.100   0.9067   0.04410   0.03857   0.0303  0.0354  1.0000  -5.3158   0.0000   0.0000   0.0000   0.2074
  10.200   0.9046   0.04528   0.03984   0.0314  0.0352  1.0000  -5.3232   0.0000   0.0000   0.0000   0.2059
  10.300   0.9015   0.04650   0.04116   0.0326  0.0350  1.0000  -5.3233   0.0000   0.0000   0.0000   0.2044
  10.400   0.8974   0.04775   0.04251   0.0338  0.0349  1.0000  -5.3164   0.0000   0.0000   0.0000   0.2028
  10.500   0.8920   0.04899   0.04384   0.0351  0.0348  1.0000  -5.3025   0.0000   0.0000   0.0000   0.2010
  10.600   0.8849   0.05014   0.04508   0.0367  0.0348  1.0000  -5.2818   0.0000   0.0000   0.0000   0.1988
  10.700   0.8770   0.05133   0.04636   0.0381  0.0348  1.0000  -5.2554   0.0000   0.0000   0.0000   0.1967
  10.800   0.8684   0.05261   0.04772   0.0393  0.0349  1.0000  -5.2226   0.0000   0.0000   0.0000   0.1947
  10.900   0.8591   0.05401   0.04922   0.0403  0.0350  1.0000  -5.1818   0.0000   0.0000   0.0000   0.1930
  11.000   0.8488   0.05560   0.05090   0.0409  0.0351  1.0000  -5.1305   0.0000   0.0000   0.0000   0.1916
  11.100   0.8375   0.05742   0.05282   0.0410  0.0353  1.0000  -5.0661   0.0000   0.0000   0.0000   0.1906
  11.200   0.8247   0.05959   0.05502   0.0406  0.0356  1.0000  -4.9821   0.0000   0.0000   0.0000   0.1902
  11.300   0.8091   0.06233   0.05787   0.0395  0.0361  1.0000  -4.8703   0.0000   0.0000   0.0000   0.1905
  11.400   0.7902   0.06591   0.06156   0.0372  0.0368  1.0000  -4.7193   0.0000   0.0000   0.0000   0.1919
  11.500   0.7435   0.07536   0.07118   0.0292  0.0393  1.0000  -4.2618   0.0000   0.0000   0.0000   0.1997
  11.600   0.7056   0.08636   0.08221   0.0207  0.0420  1.0000  -3.8000   0.0000   0.0000   0.0000   0.2097
  11.700   0.6871   0.09317   0.08899   0.0168  0.0438  1.0000  -3.5423   0.0000   0.0000   0.0000   0.2147
  11.800   0.6775   0.09733   0.09312   0.0146  0.0446  1.0000  -3.4132   0.0000   0.0000   0.0000   0.2175
  11.900   0.6702   0.10088   0.09665   0.0129  0.0451  1.0000  -3.3140   0.0000   0.0000   0.0000   0.2199
  12.000   0.6643   0.10410   0.09985   0.0114  0.0454  1.0000  -3.2303   0.0000   0.0000   0.0000   0.2219
  12.100   0.6592   0.10712   0.10285   0.0100  0.0457  1.0000  -3.1565   0.0000   0.0000   0.0000   0.2238
  12.200   0.6549   0.10999   0.10570   0.0087  0.0459  1.0000  -3.0902   0.0000   0.0000   0.0000   0.2256
  12.300   0.6512   0.11273   0.10843   0.0076  0.0461  1.0000  -3.0303   0.0000   0.0000   0.0000   0.2273
  12.400   0.6480   0.11538   0.11107   0.0065  0.0464  1.0000  -2.9767   0.0000   0.0000   0.0000   0.2288
  12.500   0.6451   0.11796   0.11364   0.0057  0.0469  1.0000  -2.9298   0.0000   0.0000   0.0000   0.2300
  12.600   0.6211   0.13059   0.12624  -0.0009  0.0725  1.0000  -2.2837   0.0000   0.0000   0.0000   0.2409
  12.700   0.6235   0.13204   0.12770  -0.0011  0.0718  1.0000  -2.2973   0.0000   0.0000   0.0000   0.2411
  12.800   0.6261   0.13349   0.12915  -0.0012  0.0713  1.0000  -2.3128   0.0000   0.0000   0.0000   0.2411
  12.900   0.6297   0.13485   0.13052  -0.0011  0.0707  1.0000  -2.3383   0.0000   0.0000   0.0000   0.2409
  13.000   0.6337   0.13624   0.13191  -0.0008  0.0701  1.0000  -2.3680   0.0000   0.0000   0.0000   0.2404
  13.100   0.6380   0.13774   0.13342  -0.0005  0.0695  1.0000  -2.4009   0.0000   0.0000   0.0000   0.2398
  13.200   0.6430   0.13952   0.13521   0.0001  0.0688  1.0000  -2.4401   0.0000   0.0000   0.0000   0.2387
  13.300   0.6352   0.14573   0.14137  -0.0006  0.0674  1.0000  -2.3611   0.0000   0.0000   0.0000   0.2399
  13.400   0.6354   0.14779   0.14343  -0.0015  0.0674  1.0000  -2.3382   0.0000   0.0000   0.0000   0.2411
  13.500   0.6358   0.14982   0.14545  -0.0023  0.0674  1.0000  -2.3159   0.0000   0.0000   0.0000   0.2424
  13.600   0.6362   0.15181   0.14743  -0.0031  0.0673  1.0000  -2.2941   0.0000   0.0000   0.0000   0.2436
  13.700   0.6367   0.15375   0.14936  -0.0040  0.0673  1.0000  -2.2728   0.0000   0.0000   0.0000   0.2449
  13.800   0.6371   0.15564   0.15125  -0.0049  0.0672  1.0000  -2.2518   0.0000   0.0000   0.0000   0.2462
  13.900   0.6377   0.15748   0.15309  -0.0057  0.0672  1.0000  -2.2309   0.0000   0.0000   0.0000   0.2475
  14.000   0.6382   0.15926   0.15486  -0.0066  0.0671  1.0000  -2.2102   0.0000   0.0000   0.0000   0.2488
  14.100   0.6388   0.16097   0.15656  -0.0075  0.0670  1.0000  -2.1894   0.0000   0.0000   0.0000   0.2502
  14.200   0.6393   0.16259   0.15817  -0.0085  0.0669  1.0000  -2.1682   0.0000   0.0000   0.0000   0.2515
  14.300   0.6398   0.16409   0.15967  -0.0095  0.0667  1.0000  -2.1459   0.0000   0.0000   0.0000   0.2530
  14.400   0.6390   0.16543   0.16099  -0.0108  0.0664  1.0000  -2.1125   0.0000   0.0000   0.0000   0.2550
  14.500   0.6367   0.16650   0.16204  -0.0124  0.0658  1.0000  -2.0640   0.0000   0.0000   0.0000   0.2576
  14.600   0.6321   0.16732   0.16285  -0.0145  0.0647  1.0000  -1.9976   0.0000   0.0000   0.0000   0.2609
  14.700   0.6296   0.16848   0.16399  -0.0161  0.0633  1.0000  -1.9503   0.0000   0.0000   0.0000   0.2634
  14.800   0.6296   0.16992   0.16542  -0.0172  0.0620  1.0000  -1.9250   0.0000   0.0000   0.0000   0.2650
  14.900   0.6305   0.17142   0.16692  -0.0180  0.0609  1.0000  -1.9097   0.0000   0.0000   0.0000   0.2662
  15.000   0.6319   0.17293   0.16842  -0.0188  0.0598  1.0000  -1.8996   0.0000   0.0000   0.0000   0.2672


