xflr5 v6.61

 Calculated polar for: SD8020-010-88

 1 1 Reynolds number fixed          Mach number fixed         

 xtrf =   1.000 (top)        1.000 (bottom)
 Mach =   0.000     Re =     0.200 e 6     Ncrit =   9.000

  alpha     CL        CD       CDp       Cm    Top Xtr Bot Xtr   Cpmin    Chinge    XCp    
 ------- -------- --------- --------- -------- ------- ------- -------- --------- ---------
 -10.000  -0.9191   0.03897   0.03361  -0.0281  1.0000  0.0284  -5.5727   0.0000   0.0000   0.0000   0.2102
  -9.900  -0.9193   0.03786   0.03238  -0.0269  1.0000  0.0287  -5.5598   0.0000   0.0000   0.0000   0.2117
  -9.800  -0.9187   0.03680   0.03120  -0.0257  1.0000  0.0290  -5.5403   0.0000   0.0000   0.0000   0.2130
  -9.700  -0.9173   0.03580   0.03007  -0.0246  1.0000  0.0294  -5.5133   0.0000   0.0000   0.0000   0.2143
  -9.600  -0.9151   0.03486   0.02895  -0.0235  1.0000  0.0298  -5.4793   0.0000   0.0000   0.0000   0.2155
  -9.500  -0.9122   0.03401   0.02798  -0.0225  1.0000  0.0302  -5.4390   0.0000   0.0000   0.0000   0.2166
  -9.400  -0.9085   0.03324   0.02710  -0.0215  1.0000  0.0306  -5.3906   0.0000   0.0000   0.0000   0.2177
  -9.300  -0.9042   0.03258   0.02633  -0.0206  1.0000  0.0310  -5.3337   0.0000   0.0000   0.0000   0.2187
  -9.200  -0.8992   0.03204   0.02569  -0.0197  1.0000  0.0314  -5.2676   0.0000   0.0000   0.0000   0.2197
  -9.100  -0.8935   0.03165   0.02520  -0.0188  1.0000  0.0317  -5.1916   0.0000   0.0000   0.0000   0.2206
  -9.000  -0.8919   0.03018   0.02358  -0.0177  1.0000  0.0322  -5.1787   0.0000   0.0000   0.0000   0.2219
  -8.900  -0.8927   0.02779   0.02096  -0.0163  1.0000  0.0335  -5.2100   0.0000   0.0000   0.0000   0.2235
  -8.800  -0.8894   0.02659   0.01968  -0.0154  1.0000  0.0351  -5.1633   0.0000   0.0000   0.0000   0.2246
  -8.700  -0.8839   0.02610   0.01918  -0.0147  1.0000  0.0365  -5.0727   0.0000   0.0000   0.0000   0.2254
  -8.600  -0.8775   0.02580   0.01889  -0.0140  1.0000  0.0378  -4.9725   0.0000   0.0000   0.0000   0.2262
  -8.500  -0.8709   0.02548   0.01854  -0.0133  1.0000  0.0392  -4.8772   0.0000   0.0000   0.0000   0.2269
  -8.400  -0.8642   0.02506   0.01807  -0.0126  1.0000  0.0404  -4.7903   0.0000   0.0000   0.0000   0.2277
  -8.300  -0.8574   0.02454   0.01749  -0.0119  1.0000  0.0415  -4.7100   0.0000   0.0000   0.0000   0.2286
  -8.200  -0.8505   0.02399   0.01687  -0.0111  1.0000  0.0425  -4.6319   0.0000   0.0000   0.0000   0.2294
  -8.100  -0.8435   0.02347   0.01627  -0.0104  1.0000  0.0435  -4.5520   0.0000   0.0000   0.0000   0.2303
  -8.000  -0.8363   0.02297   0.01570  -0.0097  1.0000  0.0445  -4.4703   0.0000   0.0000   0.0000   0.2311
  -7.900  -0.8289   0.02251   0.01517  -0.0090  1.0000  0.0455  -4.3860   0.0000   0.0000   0.0000   0.2319
  -7.800  -0.8214   0.02209   0.01469  -0.0083  1.0000  0.0465  -4.2994   0.0000   0.0000   0.0000   0.2328
  -7.700  -0.8137   0.02173   0.01427  -0.0077  1.0000  0.0473  -4.2099   0.0000   0.0000   0.0000   0.2336
  -7.600  -0.8055   0.02153   0.01401  -0.0071  1.0000  0.0481  -4.1117   0.0000   0.0000   0.0000   0.2343
  -7.500  -0.8010   0.02033   0.01276  -0.0060  1.0000  0.0507  -4.0709   0.0000   0.0000   0.0000   0.2356
  -7.400  -0.7958   0.01961   0.01207  -0.0051  1.0000  0.0535  -4.0158   0.0000   0.0000   0.0000   0.2368
  -7.300  -0.7890   0.01925   0.01172  -0.0044  1.0000  0.0561  -3.9415   0.0000   0.0000   0.0000   0.2378
  -7.200  -0.7817   0.01894   0.01140  -0.0037  1.0000  0.0588  -3.8674   0.0000   0.0000   0.0000   0.2387
  -7.100  -0.7744   0.01861   0.01104  -0.0030  1.0000  0.0618  -3.7981   0.0000   0.0000   0.0000   0.2397
  -7.000  -0.7668   0.01830   0.01067  -0.0022  1.0000  0.0649  -3.7290   0.0000   0.0000   0.0000   0.2407
  -6.900  -0.7583   0.01813   0.01043  -0.0016  1.0000  0.0674  -3.6514   0.0000   0.0000   0.0000   0.2416
  -6.800  -0.7553   0.01719   0.00957  -0.0003  1.0000  0.0741  -3.6165   0.0000   0.0000   0.0000   0.2434
  -6.700  -0.7483   0.01689   0.00924   0.0004  1.0000  0.0797  -3.5393   0.0000   0.0000   0.0000   0.2445
  -6.600  -0.7402   0.01669   0.00899   0.0011  1.0000  0.0853  -3.4611   0.0000   0.0000   0.0000   0.2454
  -6.500  -0.7330   0.01638   0.00865   0.0018  1.0000  0.0904  -3.3886   0.0000   0.0000   0.0000   0.2465
  -6.400  -0.7270   0.01596   0.00831   0.0027  1.0000  0.0973  -3.3192   0.0000   0.0000   0.0000   0.2478
  -6.300  -0.7192   0.01576   0.00811   0.0033  1.0000  0.1033  -3.2380   0.0000   0.0000   0.0000   0.2488
  -6.200  -0.7106   0.01562   0.00791   0.0038  1.0000  0.1086  -3.1547   0.0000   0.0000   0.0000   0.2497
  -6.100  -0.7041   0.01526   0.00760   0.0046  1.0000  0.1151  -3.0831   0.0000   0.0000   0.0000   0.2509
  -6.000  -0.6968   0.01501   0.00740   0.0053  1.0000  0.1218  -3.0048   0.0000   0.0000   0.0000   0.2520
  -5.900  -0.6885   0.01486   0.00723   0.0058  1.0000  0.1286  -2.9224   0.0000   0.0000   0.0000   0.2530
  -5.800  -0.6809   0.01463   0.00701   0.0064  1.0000  0.1358  -2.8450   0.0000   0.0000   0.0000   0.2541
  -5.700  -0.6737   0.01439   0.00684   0.0071  1.0000  0.1443  -2.7673   0.0000   0.0000   0.0000   0.2553
  -5.600  -0.6651   0.01429   0.00670   0.0076  1.0000  0.1530  -2.6847   0.0000   0.0000   0.0000   0.2562
  -5.500  -0.6582   0.01401   0.00652   0.0083  1.0000  0.1628  -2.6106   0.0000   0.0000   0.0000   0.2575
  -5.400  -0.6503   0.01385   0.00638   0.0088  1.0000  0.1731  -2.5319   0.0000   0.0000   0.0000   0.2586
  -5.300  -0.6429   0.01363   0.00621   0.0095  1.0000  0.1833  -2.4575   0.0000   0.0000   0.0000   0.2599
  -5.200  -0.6353   0.01344   0.00607   0.0101  1.0000  0.1943  -2.3822   0.0000   0.0000   0.0000   0.2611
  -5.100  -0.6277   0.01324   0.00591   0.0108  1.0000  0.2051  -2.3085   0.0000   0.0000   0.0000   0.2624
  -5.000  -0.6202   0.01305   0.00577   0.0114  1.0000  0.2172  -2.2351   0.0000   0.0000   0.0000   0.2637
  -4.900  -0.6127   0.01286   0.00563   0.0121  1.0000  0.2292  -2.1726   0.0000   0.0000   0.0000   0.2651
  -4.800  -0.6050   0.01269   0.00550   0.0127  1.0000  0.2425  -2.1117   0.0000   0.0000   0.0000   0.2665
  -4.700  -0.5978   0.01249   0.00538   0.0134  1.0000  0.2554  -2.0526   0.0000   0.0000   0.0000   0.2679
  -4.500  -0.5828   0.01216   0.00511   0.0147  1.0000  0.2828  -1.9559   0.0000   0.0000   0.0000   0.2709
  -4.400  -0.5751   0.01201   0.00500   0.0153  1.0000  0.2965  -1.9075   0.0000   0.0000   0.0000   0.2724
  -4.300  -0.5676   0.01187   0.00490   0.0160  1.0000  0.3109  -1.8596   0.0000   0.0000   0.0000   0.2740
  -4.200  -0.5603   0.01171   0.00481   0.0167  1.0000  0.3248  -1.8123   0.0000   0.0000   0.0000   0.2757
  -4.100  -0.5525   0.01159   0.00473   0.0173  1.0000  0.3396  -1.7644   0.0000   0.0000   0.0000   0.2773
  -4.000  -0.5453   0.01144   0.00466   0.0180  1.0000  0.3544  -1.7180   0.0000   0.0000   0.0000   0.2791
  -3.900  -0.5379   0.01132   0.00459   0.0187  1.0000  0.3693  -1.6714   0.0000   0.0000   0.0000   0.2808
  -3.700  -0.5233   0.01108   0.00448   0.0201  1.0000  0.4022  -1.5797   0.0000   0.0000   0.0000   0.2846
  -3.600  -0.5162   0.01096   0.00443   0.0208  1.0000  0.4188  -1.5347   0.0000   0.0000   0.0000   0.2866
  -3.500  -0.5089   0.01086   0.00439   0.0215  1.0000  0.4361  -1.4898   0.0000   0.0000   0.0000   0.2887
  -3.400  -0.5018   0.01076   0.00435   0.0222  1.0000  0.4538  -1.4454   0.0000   0.0000   0.0000   0.2908
  -3.300  -0.4949   0.01065   0.00433   0.0230  1.0000  0.4708  -1.4021   0.0000   0.0000   0.0000   0.2931
  -3.200  -0.4879   0.01056   0.00430   0.0238  1.0000  0.4875  -1.3588   0.0000   0.0000   0.0000   0.2954
  -3.100  -0.4808   0.01048   0.00428   0.0246  1.0000  0.5045  -1.3156   0.0000   0.0000   0.0000   0.2978
  -3.000  -0.4739   0.01040   0.00427   0.0253  1.0000  0.5217  -1.2733   0.0000   0.0000   0.0000   0.3003
  -2.900  -0.4672   0.01031   0.00426   0.0262  1.0000  0.5388  -1.2317   0.0000   0.0000   0.0000   0.3029
  -2.800  -0.4604   0.01024   0.00426   0.0270  1.0000  0.5564  -1.1903   0.0000   0.0000   0.0000   0.3055
  -2.700  -0.4537   0.01018   0.00426   0.0278  1.0000  0.5746  -1.1492   0.0000   0.0000   0.0000   0.3083
  -2.600  -0.4472   0.01012   0.00427   0.0287  1.0000  0.5926  -1.1087   0.0000   0.0000   0.0000   0.3112
  -2.500  -0.4407   0.01005   0.00426   0.0296  1.0000  0.6099  -1.0710   0.0000   0.0000   0.0000   0.3142
  -2.400  -0.4342   0.01000   0.00428   0.0304  1.0000  0.6271  -1.0493   0.0000   0.0000   0.0000   0.3173
  -2.300  -0.4277   0.00997   0.00430   0.0313  1.0000  0.6448  -1.0277   0.0000   0.0000   0.0000   0.3205
  -2.200  -0.4213   0.00992   0.00433   0.0322  1.0000  0.6624  -1.0064   0.0000   0.0000   0.0000   0.3238
  -2.100  -0.4049   0.00991   0.00440   0.0311  0.9973  0.6839  -0.9721   0.0000   0.0000   0.0000   0.3243
  -2.000  -0.3883   0.00991   0.00449   0.0301  0.9942  0.7048  -0.9380   0.0000   0.0000   0.0000   0.3248
  -1.900  -0.3712   0.00993   0.00458   0.0289  0.9913  0.7248  -0.9033   0.0000   0.0000   0.0000   0.3253
  -1.800  -0.3546   0.00994   0.00466   0.0278  0.9886  0.7441  -0.8696   0.0000   0.0000   0.0000   0.3260
  -1.700  -0.3399   0.00990   0.00467   0.0272  0.9851  0.7623  -0.8385   0.0000   0.0000   0.0000   0.3276
  -1.600  -0.3242   0.00987   0.00470   0.0264  0.9815  0.7801  -0.8065   0.0000   0.0000   0.0000   0.3291
  -1.500  -0.3075   0.00986   0.00475   0.0254  0.9783  0.7966  -0.7734   0.0000   0.0000   0.0000   0.3304
  -1.400  -0.2900   0.00987   0.00480   0.0243  0.9753  0.8131  -0.7395   0.0000   0.0000   0.0000   0.3314
  -1.300  -0.2716   0.00989   0.00483   0.0230  0.9727  0.8294  -0.7067   0.0000   0.0000   0.0000   0.3322
  -1.200  -0.2515   0.00991   0.00490   0.0213  0.9709  0.8435  -0.6763   0.0000   0.0000   0.0000   0.3326
  -1.100  -0.2330   0.00994   0.00495   0.0200  0.9685  0.8575  -0.6478   0.0000   0.0000   0.0000   0.3337
  -1.000  -0.2174   0.00993   0.00497   0.0194  0.9646  0.8704  -0.6224   0.0000   0.0000   0.0000   0.3369
  -0.900  -0.1993   0.00994   0.00500   0.0182  0.9612  0.8820  -0.5947   0.0000   0.0000   0.0000   0.3390
  -0.800  -0.1783   0.00999   0.00506   0.0164  0.9587  0.8922  -0.5645   0.0000   0.0000   0.0000   0.3398
  -0.700  -0.1584   0.01003   0.00510   0.0148  0.9558  0.9024  -0.5396   0.0000   0.0000   0.0000   0.3414
  -0.600  -0.1340   0.01009   0.00517   0.0123  0.9542  0.9088  -0.5115   0.0000   0.0000   0.0000   0.3400
  -0.500  -0.1109   0.01014   0.00522   0.0101  0.9523  0.9155  -0.4846   0.0000   0.0000   0.0000   0.3392
  -0.400  -0.0904   0.01016   0.00523   0.0084  0.9498  0.9233  -0.4613   0.0000   0.0000   0.0000   0.3410
  -0.300  -0.0653   0.01020   0.00526   0.0058  0.9484  0.9269  -0.4367   0.0000   0.0000   0.0000   0.3364
  -0.200  -0.0399   0.01023   0.00529   0.0031  0.9471  0.9300  -0.4121   0.0000   0.0000   0.0000   0.3256
  -0.100  -0.0209   0.01025   0.00531   0.0017  0.9422  0.9342  -0.3922   0.0000   0.0000   0.0000   0.3313
   0.000   0.0001   0.01025   0.00532  -0.0000  0.9381  0.9381  -0.3729   0.0000   0.0000   0.0000   0.4709
   0.100   0.0210   0.01025   0.00531  -0.0018  0.9342  0.9422  -0.3921   0.0000   0.0000   0.0000   0.3322
   0.200   0.0400   0.01023   0.00529  -0.0031  0.9300  0.9471  -0.4121   0.0000   0.0000   0.0000   0.3262
   0.300   0.0655   0.01020   0.00526  -0.0058  0.9269  0.9484  -0.4367   0.0000   0.0000   0.0000   0.3368
   0.400   0.0906   0.01016   0.00523  -0.0084  0.9233  0.9498  -0.4613   0.0000   0.0000   0.0000   0.3413
   0.500   0.1111   0.01014   0.00522  -0.0102  0.9155  0.9523  -0.4850   0.0000   0.0000   0.0000   0.3394
   0.600   0.1342   0.01009   0.00517  -0.0124  0.9088  0.9543  -0.5119   0.0000   0.0000   0.0000   0.3401
   0.700   0.1585   0.01003   0.00510  -0.0148  0.9024  0.9559  -0.5401   0.0000   0.0000   0.0000   0.3415
   0.800   0.1785   0.00999   0.00506  -0.0164  0.8922  0.9587  -0.5647   0.0000   0.0000   0.0000   0.3399
   0.900   0.1994   0.00994   0.00500  -0.0182  0.8820  0.9613  -0.5945   0.0000   0.0000   0.0000   0.3391
   1.000   0.2175   0.00993   0.00497  -0.0194  0.8705  0.9647  -0.6220   0.0000   0.0000   0.0000   0.3369
   1.100   0.2330   0.00994   0.00495  -0.0200  0.8576  0.9686  -0.6474   0.0000   0.0000   0.0000   0.3337
   1.200   0.2518   0.00991   0.00490  -0.0214  0.8436  0.9709  -0.6761   0.0000   0.0000   0.0000   0.3327
   1.300   0.2719   0.00988   0.00482  -0.0230  0.8295  0.9728  -0.7065   0.0000   0.0000   0.0000   0.3324
   1.400   0.2903   0.00987   0.00480  -0.0243  0.8132  0.9754  -0.7395   0.0000   0.0000   0.0000   0.3315
   1.500   0.3078   0.00986   0.00475  -0.0255  0.7967  0.9784  -0.7733   0.0000   0.0000   0.0000   0.3305
   1.600   0.3245   0.00987   0.00470  -0.0265  0.7802  0.9816  -0.8063   0.0000   0.0000   0.0000   0.3292
   1.700   0.3400   0.00990   0.00466  -0.0272  0.7624  0.9852  -0.8383   0.0000   0.0000   0.0000   0.3277
   1.800   0.3547   0.00994   0.00466  -0.0279  0.7442  0.9887  -0.8693   0.0000   0.0000   0.0000   0.3261
   1.900   0.3713   0.00993   0.00458  -0.0289  0.7248  0.9913  -0.9030   0.0000   0.0000   0.0000   0.3253
   2.000   0.3883   0.00991   0.00448  -0.0300  0.7048  0.9942  -0.9375   0.0000   0.0000   0.0000   0.3248
   2.100   0.4048   0.00991   0.00440  -0.0311  0.6839  0.9973  -0.9716   0.0000   0.0000   0.0000   0.3243
   2.200   0.4212   0.00992   0.00433  -0.0322  0.6624  1.0000  -1.0059   0.0000   0.0000   0.0000   0.3238
   2.300   0.4276   0.00996   0.00430  -0.0313  0.6449  1.0000  -1.0272   0.0000   0.0000   0.0000   0.3204
   2.400   0.4341   0.01000   0.00428  -0.0304  0.6273  1.0000  -1.0488   0.0000   0.0000   0.0000   0.3173
   2.500   0.4407   0.01005   0.00426  -0.0296  0.6103  1.0000  -1.0719   0.0000   0.0000   0.0000   0.3142
   2.600   0.4471   0.01011   0.00427  -0.0287  0.5930  1.0000  -1.1082   0.0000   0.0000   0.0000   0.3112
   2.700   0.4537   0.01018   0.00426  -0.0278  0.5749  1.0000  -1.1487   0.0000   0.0000   0.0000   0.3083
   2.800   0.4604   0.01024   0.00426  -0.0270  0.5568  1.0000  -1.1897   0.0000   0.0000   0.0000   0.3055
   2.900   0.4672   0.01031   0.00426  -0.0262  0.5392  1.0000  -1.2311   0.0000   0.0000   0.0000   0.3029
   3.000   0.4739   0.01040   0.00426  -0.0253  0.5221  1.0000  -1.2727   0.0000   0.0000   0.0000   0.3003
   3.100   0.4808   0.01048   0.00428  -0.0245  0.5047  1.0000  -1.3150   0.0000   0.0000   0.0000   0.2978
   3.200   0.4879   0.01056   0.00430  -0.0238  0.4877  1.0000  -1.3581   0.0000   0.0000   0.0000   0.2954
   3.300   0.4949   0.01065   0.00432  -0.0230  0.4710  1.0000  -1.4014   0.0000   0.0000   0.0000   0.2931
   3.400   0.5017   0.01076   0.00435  -0.0222  0.4540  1.0000  -1.4448   0.0000   0.0000   0.0000   0.2908
   3.500   0.5089   0.01086   0.00439  -0.0215  0.4362  1.0000  -1.4892   0.0000   0.0000   0.0000   0.2887
   3.600   0.5161   0.01096   0.00443  -0.0208  0.4189  1.0000  -1.5340   0.0000   0.0000   0.0000   0.2866
   3.700   0.5233   0.01108   0.00447  -0.0201  0.4022  1.0000  -1.5790   0.0000   0.0000   0.0000   0.2846
   3.900   0.5379   0.01132   0.00458  -0.0187  0.3693  1.0000  -1.6707   0.0000   0.0000   0.0000   0.2808
   4.000   0.5453   0.01144   0.00465  -0.0180  0.3545  1.0000  -1.7173   0.0000   0.0000   0.0000   0.2790
   4.100   0.5525   0.01159   0.00473  -0.0173  0.3397  1.0000  -1.7637   0.0000   0.0000   0.0000   0.2773
   4.200   0.5602   0.01171   0.00481  -0.0166  0.3248  1.0000  -1.8116   0.0000   0.0000   0.0000   0.2756
   4.300   0.5676   0.01186   0.00490  -0.0160  0.3110  1.0000  -1.8588   0.0000   0.0000   0.0000   0.2740
   4.400   0.5751   0.01201   0.00500  -0.0153  0.2965  1.0000  -1.9068   0.0000   0.0000   0.0000   0.2724
   4.500   0.5827   0.01216   0.00510  -0.0147  0.2828  1.0000  -1.9552   0.0000   0.0000   0.0000   0.2709
   4.700   0.5977   0.01249   0.00538  -0.0134  0.2554  1.0000  -2.0518   0.0000   0.0000   0.0000   0.2679
   4.800   0.6050   0.01269   0.00550  -0.0127  0.2424  1.0000  -2.1094   0.0000   0.0000   0.0000   0.2664
   4.900   0.6127   0.01286   0.00563  -0.0121  0.2291  1.0000  -2.1702   0.0000   0.0000   0.0000   0.2651
   5.000   0.6202   0.01305   0.00577  -0.0114  0.2171  1.0000  -2.2334   0.0000   0.0000   0.0000   0.2637
   5.100   0.6277   0.01324   0.00590  -0.0108  0.2052  1.0000  -2.3067   0.0000   0.0000   0.0000   0.2624
   5.200   0.6352   0.01344   0.00607  -0.0101  0.1944  1.0000  -2.3803   0.0000   0.0000   0.0000   0.2611
   5.300   0.6429   0.01363   0.00621  -0.0095  0.1834  1.0000  -2.4556   0.0000   0.0000   0.0000   0.2599
   5.400   0.6502   0.01386   0.00638  -0.0088  0.1732  1.0000  -2.5298   0.0000   0.0000   0.0000   0.2586
   5.500   0.6582   0.01401   0.00652  -0.0083  0.1629  1.0000  -2.6085   0.0000   0.0000   0.0000   0.2575
   5.600   0.6650   0.01429   0.00671  -0.0076  0.1531  1.0000  -2.6823   0.0000   0.0000   0.0000   0.2562
   5.700   0.6736   0.01439   0.00685  -0.0071  0.1444  1.0000  -2.7650   0.0000   0.0000   0.0000   0.2553
   5.800   0.6809   0.01463   0.00701  -0.0064  0.1359  1.0000  -2.8426   0.0000   0.0000   0.0000   0.2541
   5.900   0.6884   0.01487   0.00723  -0.0058  0.1286  1.0000  -2.9200   0.0000   0.0000   0.0000   0.2530
   6.000   0.6968   0.01501   0.00740  -0.0052  0.1217  1.0000  -3.0024   0.0000   0.0000   0.0000   0.2520
   6.100   0.7040   0.01526   0.00760  -0.0046  0.1149  1.0000  -3.0805   0.0000   0.0000   0.0000   0.2509
   6.200   0.7106   0.01562   0.00791  -0.0038  0.1084  1.0000  -3.1524   0.0000   0.0000   0.0000   0.2497
   6.300   0.7191   0.01576   0.00811  -0.0032  0.1031  1.0000  -3.2355   0.0000   0.0000   0.0000   0.2488
   6.400   0.7269   0.01597   0.00832  -0.0026  0.0970  1.0000  -3.3164   0.0000   0.0000   0.0000   0.2478
   6.500   0.7327   0.01640   0.00867  -0.0018  0.0902  1.0000  -3.3846   0.0000   0.0000   0.0000   0.2465
   6.600   0.7402   0.01670   0.00900  -0.0010  0.0852  1.0000  -3.4582   0.0000   0.0000   0.0000   0.2454
   6.700   0.7482   0.01690   0.00925  -0.0004  0.0797  1.0000  -3.5363   0.0000   0.0000   0.0000   0.2445
   6.800   0.7553   0.01720   0.00958   0.0003  0.0742  1.0000  -3.6138   0.0000   0.0000   0.0000   0.2434
   6.900   0.7584   0.01813   0.01044   0.0016  0.0675  1.0000  -3.6500   0.0000   0.0000   0.0000   0.2416
   7.000   0.7667   0.01831   0.01069   0.0022  0.0651  1.0000  -3.7266   0.0000   0.0000   0.0000   0.2407
   7.100   0.7744   0.01862   0.01104   0.0030  0.0620  1.0000  -3.7962   0.0000   0.0000   0.0000   0.2397
   7.200   0.7817   0.01896   0.01141   0.0037  0.0590  1.0000  -3.8652   0.0000   0.0000   0.0000   0.2387
   7.300   0.7890   0.01927   0.01174   0.0044  0.0563  1.0000  -3.9389   0.0000   0.0000   0.0000   0.2378
   7.400   0.7959   0.01961   0.01208   0.0051  0.0538  1.0000  -4.0139   0.0000   0.0000   0.0000   0.2368
   7.500   0.8014   0.02026   0.01270   0.0060  0.0510  1.0000  -4.0729   0.0000   0.0000   0.0000   0.2357
   7.600   0.8054   0.02159   0.01408   0.0071  0.0482  1.0000  -4.1087   0.0000   0.0000   0.0000   0.2343
   7.700   0.8136   0.02176   0.01430   0.0077  0.0474  1.0000  -4.2086   0.0000   0.0000   0.0000   0.2336
   7.800   0.8214   0.02211   0.01471   0.0083  0.0466  1.0000  -4.2986   0.0000   0.0000   0.0000   0.2328
   7.900   0.8289   0.02253   0.01519   0.0090  0.0457  1.0000  -4.3856   0.0000   0.0000   0.0000   0.2320
   8.000   0.8363   0.02299   0.01572   0.0097  0.0447  1.0000  -4.4700   0.0000   0.0000   0.0000   0.2311
   8.100   0.8435   0.02348   0.01629   0.0104  0.0437  1.0000  -4.5520   0.0000   0.0000   0.0000   0.2303
   8.200   0.8506   0.02401   0.01689   0.0111  0.0426  1.0000  -4.6319   0.0000   0.0000   0.0000   0.2294
   8.300   0.8575   0.02456   0.01751   0.0119  0.0416  1.0000  -4.7101   0.0000   0.0000   0.0000   0.2286
   8.400   0.8643   0.02508   0.01809   0.0126  0.0405  1.0000  -4.7901   0.0000   0.0000   0.0000   0.2278
   8.500   0.8710   0.02551   0.01857   0.0133  0.0393  1.0000  -4.8766   0.0000   0.0000   0.0000   0.2270
   8.600   0.8776   0.02583   0.01892   0.0140  0.0380  1.0000  -4.9716   0.0000   0.0000   0.0000   0.2262
   8.700   0.8840   0.02612   0.01921   0.0146  0.0366  1.0000  -5.0722   0.0000   0.0000   0.0000   0.2255
   8.800   0.8896   0.02657   0.01967   0.0153  0.0352  1.0000  -5.1650   0.0000   0.0000   0.0000   0.2246
   8.900   0.8932   0.02768   0.02084   0.0163  0.0337  1.0000  -5.2177   0.0000   0.0000   0.0000   0.2236
   9.000   0.8928   0.02997   0.02335   0.0176  0.0323  1.0000  -5.1930   0.0000   0.0000   0.0000   0.2221
   9.100   0.8934   0.03172   0.02528   0.0188  0.0318  1.0000  -5.1891   0.0000   0.0000   0.0000   0.2206
   9.200   0.8991   0.03209   0.02574   0.0197  0.0314  1.0000  -5.2664   0.0000   0.0000   0.0000   0.2197
   9.300   0.9042   0.03261   0.02636   0.0205  0.0310  1.0000  -5.3336   0.0000   0.0000   0.0000   0.2188
   9.400   0.9086   0.03326   0.02712   0.0215  0.0306  1.0000  -5.3913   0.0000   0.0000   0.0000   0.2177
   9.500   0.9123   0.03402   0.02799   0.0224  0.0302  1.0000  -5.4402   0.0000   0.0000   0.0000   0.2167
   9.600   0.9152   0.03487   0.02895   0.0235  0.0298  1.0000  -5.4811   0.0000   0.0000   0.0000   0.2155
   9.700   0.9175   0.03580   0.03007   0.0245  0.0294  1.0000  -5.5155   0.0000   0.0000   0.0000   0.2143
   9.800   0.9189   0.03680   0.03119   0.0257  0.0291  1.0000  -5.5427   0.0000   0.0000   0.0000   0.2131
   9.900   0.9196   0.03785   0.03237   0.0268  0.0287  1.0000  -5.5624   0.0000   0.0000   0.0000   0.2117
  10.000   0.9194   0.03896   0.03360   0.0280  0.0284  1.0000  -5.5755   0.0000   0.0000   0.0000   0.2103
  10.100   0.9184   0.04011   0.03487   0.0293  0.0282  1.0000  -5.5823   0.0000   0.0000   0.0000   0.2088
  10.200   0.9164   0.04129   0.03617   0.0305  0.0280  1.0000  -5.5832   0.0000   0.0000   0.0000   0.2073
  10.300   0.9135   0.04250   0.03750   0.0318  0.0278  1.0000  -5.5783   0.0000   0.0000   0.0000   0.2056
  10.400   0.9096   0.04372   0.03884   0.0332  0.0277  1.0000  -5.5682   0.0000   0.0000   0.0000   0.2039
  10.500   0.9044   0.04492   0.04014   0.0346  0.0276  1.0000  -5.5531   0.0000   0.0000   0.0000   0.2020
  10.600   0.8977   0.04603   0.04134   0.0363  0.0276  1.0000  -5.5339   0.0000   0.0000   0.0000   0.1997
  10.700   0.8903   0.04716   0.04255   0.0379  0.0276  1.0000  -5.5115   0.0000   0.0000   0.0000   0.1974
  10.800   0.8825   0.04835   0.04383   0.0393  0.0276  1.0000  -5.4857   0.0000   0.0000   0.0000   0.1954
  10.900   0.8744   0.04963   0.04519   0.0404  0.0276  1.0000  -5.4566   0.0000   0.0000   0.0000   0.1936
  11.000   0.8659   0.05100   0.04664   0.0412  0.0276  1.0000  -5.4239   0.0000   0.0000   0.0000   0.1920
  11.100   0.8571   0.05249   0.04821   0.0417  0.0277  1.0000  -5.3875   0.0000   0.0000   0.0000   0.1908
  11.200   0.8480   0.05410   0.04990   0.0418  0.0277  1.0000  -5.3470   0.0000   0.0000   0.0000   0.1900
  11.300   0.8386   0.05587   0.05175   0.0416  0.0278  1.0000  -5.3020   0.0000   0.0000   0.0000   0.1895
  11.400   0.8288   0.05782   0.05377   0.0410  0.0279  1.0000  -5.2519   0.0000   0.0000   0.0000   0.1895
  11.500   0.8187   0.05999   0.05601   0.0400  0.0280  1.0000  -5.1954   0.0000   0.0000   0.0000   0.1899
  11.600   0.8083   0.06242   0.05850   0.0386  0.0282  1.0000  -5.1314   0.0000   0.0000   0.0000   0.1909
  11.700   0.7973   0.06515   0.06130   0.0367  0.0283  1.0000  -5.0576   0.0000   0.0000   0.0000   0.1924
  11.800   0.7858   0.06827   0.06442   0.0343  0.0285  1.0000  -4.9691   0.0000   0.0000   0.0000   0.1945
  11.900   0.7733   0.07187   0.06808   0.0315  0.0288  1.0000  -4.8654   0.0000   0.0000   0.0000   0.1973
  12.000   0.7596   0.07608   0.07234   0.0282  0.0291  1.0000  -4.7372   0.0000   0.0000   0.0000   0.2008
  12.100   0.7441   0.08108   0.07737   0.0244  0.0296  1.0000  -4.5731   0.0000   0.0000   0.0000   0.2051
  12.200   0.7263   0.08696   0.08328   0.0203  0.0301  1.0000  -4.3628   0.0000   0.0000   0.0000   0.2099
  12.300   0.7075   0.09331   0.08963   0.0164  0.0308  1.0000  -4.1190   0.0000   0.0000   0.0000   0.2146
  12.400   0.6900   0.09928   0.09558   0.0134  0.0314  1.0000  -3.8801   0.0000   0.0000   0.0000   0.2185
  12.500   0.6781   0.10379   0.10009   0.0117  0.0319  1.0000  -3.7116   0.0000   0.0000   0.0000   0.2206
  12.600   0.6759   0.10649   0.10279   0.0105  0.0321  1.0000  -3.6549   0.0000   0.0000   0.0000   0.2224
  12.700   0.6742   0.10914   0.10544   0.0093  0.0323  1.0000  -3.5984   0.0000   0.0000   0.0000   0.2241
  12.800   0.6728   0.11173   0.10802   0.0082  0.0325  1.0000  -3.5426   0.0000   0.0000   0.0000   0.2257
  12.900   0.6716   0.11441   0.11070   0.0070  0.0329  1.0000  -3.4778   0.0000   0.0000   0.0000   0.2274
  13.000   0.6298   0.13108   0.12727  -0.0012  0.0437  1.0000  -2.5502   0.0000   0.0000   0.0000   0.2405
  13.200   0.6293   0.13668   0.13289  -0.0028  0.0523  1.0000  -2.3964   0.0000   0.0000   0.0000   0.2431
  13.300   0.6300   0.13847   0.13467  -0.0033  0.0521  1.0000  -2.3860   0.0000   0.0000   0.0000   0.2439
  13.400   0.6315   0.14009   0.13629  -0.0038  0.0518  1.0000  -2.3868   0.0000   0.0000   0.0000   0.2445
  13.500   0.6335   0.14163   0.13783  -0.0041  0.0515  1.0000  -2.3942   0.0000   0.0000   0.0000   0.2449
  13.600   0.6356   0.14313   0.13934  -0.0044  0.0512  1.0000  -2.4050   0.0000   0.0000   0.0000   0.2452
  13.700   0.6381   0.14462   0.14082  -0.0045  0.0508  1.0000  -2.4199   0.0000   0.0000   0.0000   0.2454
  13.800   0.6408   0.14611   0.14231  -0.0047  0.0505  1.0000  -2.4384   0.0000   0.0000   0.0000   0.2454
  13.900   0.6438   0.14766   0.14386  -0.0047  0.0501  1.0000  -2.4598   0.0000   0.0000   0.0000   0.2453
  14.000   0.6451   0.14960   0.14581  -0.0050  0.0497  1.0000  -2.4641   0.0000   0.0000   0.0000   0.2456
  14.100   0.6428   0.15286   0.14906  -0.0055  0.0490  1.0000  -2.4298   0.0000   0.0000   0.0000   0.2465
  14.200   0.6351   0.15829   0.15444  -0.0070  0.0483  1.0000  -2.3070   0.0000   0.0000   0.0000   0.2490
  14.300   0.6361   0.16024   0.15639  -0.0078  0.0483  1.0000  -2.2879   0.0000   0.0000   0.0000   0.2501
  14.400   0.6372   0.16217   0.15831  -0.0086  0.0482  1.0000  -2.2691   0.0000   0.0000   0.0000   0.2512
  14.500   0.6383   0.16406   0.16020  -0.0093  0.0482  1.0000  -2.2506   0.0000   0.0000   0.0000   0.2523
  14.600   0.6395   0.16593   0.16207  -0.0101  0.0482  1.0000  -2.2323   0.0000   0.0000   0.0000   0.2534
  14.700   0.6407   0.16777   0.16390  -0.0109  0.0482  1.0000  -2.2141   0.0000   0.0000   0.0000   0.2545
  14.800   0.6420   0.16956   0.16569  -0.0117  0.0481  1.0000  -2.1956   0.0000   0.0000   0.0000   0.2557
  14.900   0.6432   0.17130   0.16742  -0.0125  0.0481  1.0000  -2.1769   0.0000   0.0000   0.0000   0.2568
  15.000   0.6444   0.17296   0.16908  -0.0133  0.0480  1.0000  -2.1579   0.0000   0.0000   0.0000   0.2580


