xflr5 v6.61

 Calculated polar for: SD8020-010-88

 1 1 Reynolds number fixed          Mach number fixed         

 xtrf =   1.000 (top)        1.000 (bottom)
 Mach =   0.000     Re =     0.350 e 6     Ncrit =   9.000

  alpha     CL        CD       CDp       Cm    Top Xtr Bot Xtr   Cpmin    Chinge    XCp    
 ------- -------- --------- --------- -------- ------- ------- -------- --------- ---------
 -10.000  -0.9681   0.02797   0.02254  -0.0225  1.0000  0.0174  -6.5055   0.0000   0.0000   0.0000   0.2173
  -9.900  -0.9629   0.02758   0.02211  -0.0217  1.0000  0.0178  -6.4145   0.0000   0.0000   0.0000   0.2181
  -9.800  -0.9575   0.02720   0.02167  -0.0209  1.0000  0.0183  -6.3242   0.0000   0.0000   0.0000   0.2190
  -9.700  -0.9518   0.02684   0.02126  -0.0201  1.0000  0.0187  -6.2327   0.0000   0.0000   0.0000   0.2198
  -9.600  -0.9458   0.02652   0.02088  -0.0193  1.0000  0.0190  -6.1385   0.0000   0.0000   0.0000   0.2206
  -9.500  -0.9394   0.02625   0.02055  -0.0186  1.0000  0.0193  -6.0406   0.0000   0.0000   0.0000   0.2213
  -9.400  -0.9326   0.02602   0.02028  -0.0179  1.0000  0.0196  -5.9388   0.0000   0.0000   0.0000   0.2221
  -9.200  -0.9315   0.02308   0.01698  -0.0150  1.0000  0.0207  -5.9356   0.0000   0.0000   0.0000   0.2253
  -9.100  -0.9299   0.02190   0.01569  -0.0135  1.0000  0.0216  -5.9140   0.0000   0.0000   0.0000   0.2269
  -9.000  -0.9261   0.02116   0.01489  -0.0124  1.0000  0.0224  -5.8532   0.0000   0.0000   0.0000   0.2282
  -8.900  -0.9209   0.02065   0.01436  -0.0115  1.0000  0.0232  -5.7687   0.0000   0.0000   0.0000   0.2292
  -8.800  -0.9147   0.02028   0.01396  -0.0107  1.0000  0.0240  -5.6711   0.0000   0.0000   0.0000   0.2301
  -8.700  -0.9081   0.01997   0.01362  -0.0100  1.0000  0.0247  -5.5682   0.0000   0.0000   0.0000   0.2309
  -8.600  -0.9012   0.01967   0.01330  -0.0093  1.0000  0.0255  -5.4647   0.0000   0.0000   0.0000   0.2317
  -8.500  -0.8943   0.01938   0.01298  -0.0086  1.0000  0.0263  -5.3617   0.0000   0.0000   0.0000   0.2325
  -8.400  -0.8872   0.01909   0.01266  -0.0079  1.0000  0.0271  -5.2596   0.0000   0.0000   0.0000   0.2334
  -8.300  -0.8799   0.01883   0.01237  -0.0072  1.0000  0.0280  -5.1541   0.0000   0.0000   0.0000   0.2341
  -8.200  -0.8722   0.01862   0.01213  -0.0066  1.0000  0.0289  -5.0436   0.0000   0.0000   0.0000   0.2349
  -8.100  -0.8643   0.01844   0.01192  -0.0061  1.0000  0.0298  -4.9308   0.0000   0.0000   0.0000   0.2355
  -8.000  -0.8562   0.01829   0.01174  -0.0055  1.0000  0.0306  -4.8167   0.0000   0.0000   0.0000   0.2362
  -7.900  -0.8479   0.01816   0.01158  -0.0050  1.0000  0.0312  -4.7023   0.0000   0.0000   0.0000   0.2369
  -7.800  -0.8396   0.01803   0.01142  -0.0045  1.0000  0.0316  -4.5886   0.0000   0.0000   0.0000   0.2375
  -7.700  -0.8315   0.01785   0.01123  -0.0039  1.0000  0.0319  -4.4799   0.0000   0.0000   0.0000   0.2383
  -7.600  -0.8286   0.01696   0.01023  -0.0025  1.0000  0.0331  -4.4353   0.0000   0.0000   0.0000   0.2401
  -7.500  -0.8243   0.01633   0.00954  -0.0012  1.0000  0.0345  -4.3717   0.0000   0.0000   0.0000   0.2416
  -7.400  -0.8189   0.01585   0.00904  -0.0002  1.0000  0.0361  -4.2947   0.0000   0.0000   0.0000   0.2430
  -7.300  -0.8124   0.01550   0.00867   0.0007  1.0000  0.0377  -4.2066   0.0000   0.0000   0.0000   0.2442
  -7.200  -0.8054   0.01521   0.00838   0.0014  1.0000  0.0395  -4.1142   0.0000   0.0000   0.0000   0.2452
  -7.100  -0.7980   0.01497   0.00813   0.0021  1.0000  0.0414  -4.0322   0.0000   0.0000   0.0000   0.2462
  -7.000  -0.7902   0.01477   0.00791   0.0027  1.0000  0.0437  -3.9472   0.0000   0.0000   0.0000   0.2471
  -6.900  -0.7820   0.01460   0.00773   0.0033  1.0000  0.0461  -3.8606   0.0000   0.0000   0.0000   0.2480
  -6.800  -0.7732   0.01451   0.00760   0.0038  1.0000  0.0479  -3.7688   0.0000   0.0000   0.0000   0.2487
  -6.700  -0.7688   0.01392   0.00704   0.0050  1.0000  0.0553  -3.7202   0.0000   0.0000   0.0000   0.2504
  -6.600  -0.7615   0.01366   0.00683   0.0057  1.0000  0.0613  -3.6392   0.0000   0.0000   0.0000   0.2515
  -6.500  -0.7531   0.01352   0.00663   0.0063  1.0000  0.0658  -3.5496   0.0000   0.0000   0.0000   0.2524
  -6.400  -0.7455   0.01331   0.00640   0.0069  1.0000  0.0707  -3.4690   0.0000   0.0000   0.0000   0.2535
  -6.300  -0.7385   0.01303   0.00618   0.0076  1.0000  0.0776  -3.3899   0.0000   0.0000   0.0000   0.2546
  -6.200  -0.7304   0.01287   0.00604   0.0082  1.0000  0.0828  -3.3036   0.0000   0.0000   0.0000   0.2556
  -6.100  -0.7218   0.01277   0.00590   0.0087  1.0000  0.0867  -3.2151   0.0000   0.0000   0.0000   0.2565
  -6.000  -0.7138   0.01261   0.00574   0.0093  1.0000  0.0912  -3.1314   0.0000   0.0000   0.0000   0.2576
  -5.900  -0.7064   0.01238   0.00556   0.0100  1.0000  0.0978  -3.0507   0.0000   0.0000   0.0000   0.2587
  -5.800  -0.6983   0.01223   0.00544   0.0105  1.0000  0.1034  -2.9667   0.0000   0.0000   0.0000   0.2598
  -5.700  -0.6898   0.01213   0.00532   0.0111  1.0000  0.1080  -2.8814   0.0000   0.0000   0.0000   0.2608
  -5.600  -0.6818   0.01198   0.00517   0.0116  1.0000  0.1139  -2.7999   0.0000   0.0000   0.0000   0.2619
  -5.500  -0.6742   0.01180   0.00504   0.0123  1.0000  0.1210  -2.7200   0.0000   0.0000   0.0000   0.2631
  -5.400  -0.6660   0.01167   0.00493   0.0128  1.0000  0.1275  -2.6383   0.0000   0.0000   0.0000   0.2642
  -5.300  -0.6576   0.01157   0.00482   0.0133  1.0000  0.1333  -2.5569   0.0000   0.0000   0.0000   0.2654
  -5.200  -0.6501   0.01139   0.00470   0.0140  1.0000  0.1419  -2.4797   0.0000   0.0000   0.0000   0.2667
  -5.100  -0.6420   0.01126   0.00460   0.0145  1.0000  0.1500  -2.4008   0.0000   0.0000   0.0000   0.2679
  -5.000  -0.6339   0.01114   0.00450   0.0151  1.0000  0.1583  -2.3230   0.0000   0.0000   0.0000   0.2692
  -4.900  -0.6263   0.01099   0.00440   0.0157  1.0000  0.1685  -2.2474   0.0000   0.0000   0.0000   0.2705
  -4.800  -0.6181   0.01089   0.00432   0.0163  1.0000  0.1778  -2.1793   0.0000   0.0000   0.0000   0.2718
  -4.700  -0.6106   0.01073   0.00423   0.0169  1.0000  0.1894  -2.1179   0.0000   0.0000   0.0000   0.2732
  -4.500  -0.5951   0.01049   0.00409   0.0181  1.0000  0.2126  -2.0104   0.0000   0.0000   0.0000   0.2761
  -4.400  -0.5871   0.01039   0.00399   0.0186  1.0000  0.2249  -1.9604   0.0000   0.0000   0.0000   0.2775
  -4.300  -0.5797   0.01025   0.00392   0.0193  1.0000  0.2391  -1.9114   0.0000   0.0000   0.0000   0.2791
  -4.200  -0.5721   0.01014   0.00387   0.0199  1.0000  0.2526  -1.8625   0.0000   0.0000   0.0000   0.2807
  -4.100  -0.5644   0.01004   0.00382   0.0205  1.0000  0.2666  -1.8137   0.0000   0.0000   0.0000   0.2823
  -4.000  -0.5570   0.00992   0.00377   0.0211  1.0000  0.2797  -1.7660   0.0000   0.0000   0.0000   0.2840
  -3.800  -0.5419   0.00974   0.00368   0.0224  1.0000  0.3048  -1.6710   0.0000   0.0000   0.0000   0.2875
  -3.700  -0.5342   0.00968   0.00364   0.0230  1.0000  0.3169  -1.6237   0.0000   0.0000   0.0000   0.2893
  -3.600  -0.5239   0.00957   0.00360   0.0230  0.9995  0.3316  -1.5701   0.0000   0.0000   0.0000   0.2903
  -3.500  -0.5084   0.00947   0.00357   0.0220  0.9978  0.3484  -1.5043   0.0000   0.0000   0.0000   0.2897
  -3.400  -0.4928   0.00939   0.00353   0.0210  0.9960  0.3655  -1.4389   0.0000   0.0000   0.0000   0.2890
  -3.300  -0.4772   0.00930   0.00351   0.0199  0.9940  0.3835  -1.3741   0.0000   0.0000   0.0000   0.2882
  -3.200  -0.4616   0.00920   0.00349   0.0189  0.9922  0.4020  -1.3100   0.0000   0.0000   0.0000   0.2874
  -3.100  -0.4456   0.00911   0.00348   0.0177  0.9905  0.4221  -1.2458   0.0000   0.0000   0.0000   0.2864
  -3.000  -0.4305   0.00900   0.00345   0.0168  0.9888  0.4426  -1.1845   0.0000   0.0000   0.0000   0.2857
  -2.900  -0.4171   0.00887   0.00340   0.0163  0.9863  0.4621  -1.1274   0.0000   0.0000   0.0000   0.2858
  -2.800  -0.4030   0.00876   0.00332   0.0157  0.9838  0.4814  -1.0685   0.0000   0.0000   0.0000   0.2856
  -2.700  -0.3885   0.00865   0.00328   0.0149  0.9811  0.5002  -1.0351   0.0000   0.0000   0.0000   0.2852
  -2.600  -0.3736   0.00853   0.00325   0.0141  0.9786  0.5192  -1.0025   0.0000   0.0000   0.0000   0.2845
  -2.500  -0.3582   0.00842   0.00322   0.0132  0.9763  0.5393  -0.9697   0.0000   0.0000   0.0000   0.2837
  -2.400  -0.3425   0.00831   0.00319   0.0122  0.9742  0.5596  -0.9365   0.0000   0.0000   0.0000   0.2825
  -2.300  -0.3262   0.00821   0.00316   0.0111  0.9724  0.5791  -0.9030   0.0000   0.0000   0.0000   0.2811
  -2.200  -0.3095   0.00812   0.00314   0.0100  0.9708  0.5976  -0.8692   0.0000   0.0000   0.0000   0.2792
  -2.100  -0.2927   0.00803   0.00312   0.0088  0.9695  0.6164  -0.8355   0.0000   0.0000   0.0000   0.2771
  -2.000  -0.2841   0.00790   0.00306   0.0095  0.9646  0.6316  -0.8121   0.0000   0.0000   0.0000   0.2803
  -1.900  -0.2714   0.00780   0.00302   0.0092  0.9610  0.6480  -0.7838   0.0000   0.0000   0.0000   0.2810
  -1.800  -0.2572   0.00771   0.00298   0.0087  0.9579  0.6648  -0.7539   0.0000   0.0000   0.0000   0.2807
  -1.700  -0.2424   0.00760   0.00294   0.0080  0.9552  0.6803  -0.7235   0.0000   0.0000   0.0000   0.2800
  -1.600  -0.2267   0.00751   0.00289   0.0071  0.9530  0.6957  -0.6934   0.0000   0.0000   0.0000   0.2786
  -1.500  -0.2105   0.00743   0.00285   0.0062  0.9510  0.7118  -0.6671   0.0000   0.0000   0.0000   0.2765
  -1.400  -0.1941   0.00733   0.00282   0.0052  0.9493  0.7263  -0.6409   0.0000   0.0000   0.0000   0.2739
  -1.300  -0.1771   0.00725   0.00279   0.0041  0.9477  0.7401  -0.6143   0.0000   0.0000   0.0000   0.2702
  -1.200  -0.1664   0.00717   0.00275   0.0044  0.9429  0.7529  -0.5939   0.0000   0.0000   0.0000   0.2734
  -1.100  -0.1545   0.00709   0.00272   0.0044  0.9381  0.7651  -0.5725   0.0000   0.0000   0.0000   0.2754
  -1.000  -0.1406   0.00701   0.00268   0.0040  0.9342  0.7778  -0.5504   0.0000   0.0000   0.0000   0.2755
  -0.900  -0.1257   0.00693   0.00264   0.0034  0.9307  0.7893  -0.5301   0.0000   0.0000   0.0000   0.2740
  -0.800  -0.1099   0.00685   0.00261   0.0026  0.9275  0.8013  -0.5091   0.0000   0.0000   0.0000   0.2706
  -0.700  -0.0933   0.00678   0.00257   0.0016  0.9246  0.8120  -0.4877   0.0000   0.0000   0.0000   0.2645
  -0.600  -0.0829   0.00674   0.00256   0.0020  0.9177  0.8229  -0.4713   0.0000   0.0000   0.0000   0.2712
  -0.500  -0.0699   0.00669   0.00252   0.0018  0.9116  0.8333  -0.4547   0.0000   0.0000   0.0000   0.2730
  -0.400  -0.0547   0.00664   0.00251   0.0012  0.9065  0.8433  -0.4373   0.0000   0.0000   0.0000   0.2693
  -0.300  -0.0396   0.00660   0.00246   0.0006  0.9015  0.8534  -0.4200   0.0000   0.0000   0.0000   0.2618
  -0.200  -0.0272   0.00657   0.00248   0.0005  0.8938  0.8618  -0.4047   0.0000   0.0000   0.0000   0.2673
  -0.100  -0.0140   0.00656   0.00247   0.0004  0.8862  0.8709  -0.3889   0.0000   0.0000   0.0000   0.2728
   0.000   0.0000   0.00655   0.00245  -0.0000  0.8792  0.8793  -0.3744   0.0000   0.0000   0.0000   0.4188
   0.100   0.0140   0.00656   0.00247  -0.0004  0.8709  0.8863  -0.3888   0.0000   0.0000   0.0000   0.2733
   0.200   0.0272   0.00657   0.00248  -0.0006  0.8617  0.8938  -0.4045   0.0000   0.0000   0.0000   0.2675
   0.300   0.0397   0.00660   0.00247  -0.0006  0.8533  0.9015  -0.4199   0.0000   0.0000   0.0000   0.2620
   0.400   0.0548   0.00664   0.00251  -0.0012  0.8433  0.9065  -0.4371   0.0000   0.0000   0.0000   0.2695
   0.500   0.0699   0.00669   0.00252  -0.0018  0.8332  0.9116  -0.4545   0.0000   0.0000   0.0000   0.2731
   0.600   0.0829   0.00674   0.00256  -0.0020  0.8228  0.9177  -0.4717   0.0000   0.0000   0.0000   0.2712
   0.700   0.0934   0.00678   0.00257  -0.0016  0.8120  0.9247  -0.4881   0.0000   0.0000   0.0000   0.2646
   0.800   0.1100   0.00685   0.00261  -0.0026  0.8013  0.9276  -0.5095   0.0000   0.0000   0.0000   0.2708
   0.900   0.1258   0.00693   0.00264  -0.0034  0.7894  0.9307  -0.5305   0.0000   0.0000   0.0000   0.2742
   1.000   0.1407   0.00701   0.00268  -0.0040  0.7779  0.9342  -0.5508   0.0000   0.0000   0.0000   0.2756
   1.100   0.1546   0.00709   0.00272  -0.0044  0.7652  0.9382  -0.5722   0.0000   0.0000   0.0000   0.2755
   1.200   0.1665   0.00717   0.00276  -0.0044  0.7530  0.9429  -0.5936   0.0000   0.0000   0.0000   0.2734
   1.300   0.1773   0.00725   0.00279  -0.0041  0.7402  0.9477  -0.6140   0.0000   0.0000   0.0000   0.2703
   1.400   0.1943   0.00733   0.00282  -0.0052  0.7265  0.9493  -0.6406   0.0000   0.0000   0.0000   0.2740
   1.500   0.2106   0.00743   0.00285  -0.0062  0.7120  0.9510  -0.6668   0.0000   0.0000   0.0000   0.2766
   1.600   0.2268   0.00751   0.00289  -0.0072  0.6960  0.9530  -0.6930   0.0000   0.0000   0.0000   0.2787
   1.700   0.2425   0.00760   0.00295  -0.0080  0.6806  0.9553  -0.7231   0.0000   0.0000   0.0000   0.2801
   1.800   0.2573   0.00771   0.00298  -0.0087  0.6648  0.9579  -0.7536   0.0000   0.0000   0.0000   0.2808
   1.900   0.2715   0.00780   0.00302  -0.0092  0.6479  0.9610  -0.7834   0.0000   0.0000   0.0000   0.2810
   2.000   0.2842   0.00790   0.00306  -0.0095  0.6313  0.9647  -0.8117   0.0000   0.0000   0.0000   0.2803
   2.100   0.2929   0.00803   0.00312  -0.0088  0.6161  0.9695  -0.8353   0.0000   0.0000   0.0000   0.2772
   2.200   0.3098   0.00813   0.00314  -0.0100  0.5975  0.9709  -0.8691   0.0000   0.0000   0.0000   0.2793
   2.300   0.3264   0.00821   0.00316  -0.0112  0.5793  0.9724  -0.9028   0.0000   0.0000   0.0000   0.2812
   2.400   0.3427   0.00831   0.00319  -0.0122  0.5600  0.9743  -0.9363   0.0000   0.0000   0.0000   0.2826
   2.500   0.3584   0.00842   0.00322  -0.0132  0.5398  0.9763  -0.9694   0.0000   0.0000   0.0000   0.2837
   2.600   0.3736   0.00853   0.00325  -0.0141  0.5197  0.9786  -1.0021   0.0000   0.0000   0.0000   0.2846
   2.700   0.3884   0.00865   0.00328  -0.0149  0.5006  0.9811  -1.0345   0.0000   0.0000   0.0000   0.2851
   2.800   0.4029   0.00875   0.00332  -0.0156  0.4818  0.9837  -1.0682   0.0000   0.0000   0.0000   0.2855
   2.900   0.4169   0.00887   0.00339  -0.0163  0.4625  0.9863  -1.1266   0.0000   0.0000   0.0000   0.2857
   3.000   0.4303   0.00900   0.00345  -0.0168  0.4430  0.9887  -1.1836   0.0000   0.0000   0.0000   0.2857
   3.100   0.4453   0.00911   0.00348  -0.0177  0.4224  0.9905  -1.2447   0.0000   0.0000   0.0000   0.2863
   3.200   0.4613   0.00920   0.00349  -0.0188  0.4021  0.9921  -1.3090   0.0000   0.0000   0.0000   0.2873
   3.300   0.4771   0.00930   0.00351  -0.0199  0.3835  0.9940  -1.3734   0.0000   0.0000   0.0000   0.2882
   3.400   0.4929   0.00939   0.00353  -0.0210  0.3655  0.9960  -1.4385   0.0000   0.0000   0.0000   0.2890
   3.500   0.5085   0.00947   0.00356  -0.0220  0.3484  0.9979  -1.5040   0.0000   0.0000   0.0000   0.2897
   3.600   0.5241   0.00957   0.00360  -0.0231  0.3315  0.9995  -1.5703   0.0000   0.0000   0.0000   0.2904
   3.700   0.5341   0.00967   0.00364  -0.0230  0.3169  1.0000  -1.6231   0.0000   0.0000   0.0000   0.2893
   3.800   0.5418   0.00974   0.00367  -0.0224  0.3049  1.0000  -1.6704   0.0000   0.0000   0.0000   0.2875
   4.000   0.5570   0.00992   0.00376  -0.0211  0.2796  1.0000  -1.7653   0.0000   0.0000   0.0000   0.2840
   4.100   0.5644   0.01004   0.00381  -0.0205  0.2666  1.0000  -1.8130   0.0000   0.0000   0.0000   0.2823
   4.200   0.5720   0.01014   0.00387  -0.0199  0.2527  1.0000  -1.8618   0.0000   0.0000   0.0000   0.2807
   4.300   0.5796   0.01025   0.00392  -0.0193  0.2393  1.0000  -1.9107   0.0000   0.0000   0.0000   0.2791
   4.400   0.5871   0.01038   0.00398  -0.0186  0.2253  1.0000  -1.9597   0.0000   0.0000   0.0000   0.2775
   4.500   0.5950   0.01048   0.00408  -0.0181  0.2131  1.0000  -2.0097   0.0000   0.0000   0.0000   0.2761
   4.600   0.6025   0.01063   0.00416  -0.0174  0.2005  1.0000  -2.0591   0.0000   0.0000   0.0000   0.2746
   4.700   0.6106   0.01073   0.00423  -0.0169  0.1899  1.0000  -2.1155   0.0000   0.0000   0.0000   0.2732
   4.800   0.6181   0.01089   0.00432  -0.0162  0.1783  1.0000  -2.1769   0.0000   0.0000   0.0000   0.2718
   4.900   0.6263   0.01099   0.00440  -0.0157  0.1688  1.0000  -2.2455   0.0000   0.0000   0.0000   0.2705
   5.000   0.6339   0.01114   0.00450  -0.0151  0.1584  1.0000  -2.3211   0.0000   0.0000   0.0000   0.2691
   5.100   0.6420   0.01126   0.00460  -0.0145  0.1501  1.0000  -2.3988   0.0000   0.0000   0.0000   0.2679
   5.200   0.6500   0.01138   0.00470  -0.0140  0.1420  1.0000  -2.4777   0.0000   0.0000   0.0000   0.2667
   5.300   0.6576   0.01156   0.00482  -0.0133  0.1335  1.0000  -2.5549   0.0000   0.0000   0.0000   0.2654
   5.400   0.6660   0.01167   0.00493  -0.0128  0.1276  1.0000  -2.6362   0.0000   0.0000   0.0000   0.2642
   5.500   0.6741   0.01179   0.00504  -0.0123  0.1211  1.0000  -2.7178   0.0000   0.0000   0.0000   0.2631
   5.600   0.6818   0.01198   0.00517  -0.0116  0.1139  1.0000  -2.7977   0.0000   0.0000   0.0000   0.2619
   5.700   0.6898   0.01213   0.00532  -0.0110  0.1080  1.0000  -2.8792   0.0000   0.0000   0.0000   0.2608
   5.800   0.6983   0.01223   0.00544  -0.0105  0.1034  1.0000  -2.9644   0.0000   0.0000   0.0000   0.2598
   5.900   0.7063   0.01239   0.00556  -0.0100  0.0977  1.0000  -3.0483   0.0000   0.0000   0.0000   0.2587
   6.000   0.7137   0.01261   0.00574  -0.0093  0.0910  1.0000  -3.1287   0.0000   0.0000   0.0000   0.2575
   6.100   0.7218   0.01277   0.00591  -0.0087  0.0866  1.0000  -3.2127   0.0000   0.0000   0.0000   0.2565
   6.200   0.7303   0.01287   0.00604  -0.0082  0.0826  1.0000  -3.3010   0.0000   0.0000   0.0000   0.2556
   6.300   0.7384   0.01303   0.00618  -0.0076  0.0775  1.0000  -3.3871   0.0000   0.0000   0.0000   0.2546
   6.400   0.7454   0.01332   0.00641  -0.0069  0.0705  1.0000  -3.4657   0.0000   0.0000   0.0000   0.2534
   6.500   0.7530   0.01353   0.00663  -0.0062  0.0658  1.0000  -3.5467   0.0000   0.0000   0.0000   0.2524
   6.600   0.7615   0.01366   0.00683  -0.0057  0.0614  1.0000  -3.6363   0.0000   0.0000   0.0000   0.2515
   6.700   0.7688   0.01392   0.00704  -0.0050  0.0556  1.0000  -3.7179   0.0000   0.0000   0.0000   0.2504
   6.800   0.7730   0.01453   0.00763  -0.0037  0.0480  1.0000  -3.7645   0.0000   0.0000   0.0000   0.2486
   6.900   0.7818   0.01462   0.00774  -0.0033  0.0464  1.0000  -3.8569   0.0000   0.0000   0.0000   0.2479
   7.000   0.7900   0.01478   0.00793  -0.0027  0.0440  1.0000  -3.9440   0.0000   0.0000   0.0000   0.2471
   7.100   0.7979   0.01498   0.00814  -0.0021  0.0417  1.0000  -4.0293   0.0000   0.0000   0.0000   0.2461
   7.200   0.8054   0.01521   0.00838  -0.0014  0.0397  1.0000  -4.1120   0.0000   0.0000   0.0000   0.2452
   7.300   0.8125   0.01549   0.00866  -0.0007  0.0380  1.0000  -4.2065   0.0000   0.0000   0.0000   0.2442
   7.400   0.8190   0.01583   0.00902   0.0002  0.0363  1.0000  -4.2962   0.0000   0.0000   0.0000   0.2430
   7.500   0.8247   0.01629   0.00950   0.0012  0.0348  1.0000  -4.3752   0.0000   0.0000   0.0000   0.2417
   7.600   0.8292   0.01689   0.01016   0.0024  0.0334  1.0000  -4.4412   0.0000   0.0000   0.0000   0.2402
   7.700   0.8322   0.01774   0.01111   0.0038  0.0321  1.0000  -4.4890   0.0000   0.0000   0.0000   0.2384
   7.800   0.8393   0.01807   0.01147   0.0045  0.0316  1.0000  -4.5852   0.0000   0.0000   0.0000   0.2375
   7.900   0.8477   0.01819   0.01162   0.0050  0.0312  1.0000  -4.6993   0.0000   0.0000   0.0000   0.2368
   8.000   0.8560   0.01832   0.01177   0.0055  0.0307  1.0000  -4.8144   0.0000   0.0000   0.0000   0.2362
   8.100   0.8642   0.01847   0.01195   0.0061  0.0299  1.0000  -4.9290   0.0000   0.0000   0.0000   0.2355
   8.200   0.8722   0.01864   0.01215   0.0066  0.0291  1.0000  -5.0423   0.0000   0.0000   0.0000   0.2349
   8.300   0.8799   0.01884   0.01238   0.0072  0.0281  1.0000  -5.1532   0.0000   0.0000   0.0000   0.2341
   8.400   0.8872   0.01910   0.01267   0.0079  0.0272  1.0000  -5.2590   0.0000   0.0000   0.0000   0.2334
   8.500   0.8943   0.01939   0.01299   0.0086  0.0264  1.0000  -5.3612   0.0000   0.0000   0.0000   0.2325
   8.600   0.9012   0.01968   0.01331   0.0093  0.0256  1.0000  -5.4641   0.0000   0.0000   0.0000   0.2317
   8.700   0.9081   0.01998   0.01363   0.0100  0.0248  1.0000  -5.5678   0.0000   0.0000   0.0000   0.2309
   8.800   0.9148   0.02028   0.01396   0.0107  0.0241  1.0000  -5.6712   0.0000   0.0000   0.0000   0.2301
   8.900   0.9211   0.02064   0.01434   0.0115  0.0233  1.0000  -5.7703   0.0000   0.0000   0.0000   0.2292
   9.000   0.9265   0.02112   0.01485   0.0124  0.0225  1.0000  -5.8572   0.0000   0.0000   0.0000   0.2282
   9.100   0.9305   0.02183   0.01561   0.0135  0.0217  1.0000  -5.9217   0.0000   0.0000   0.0000   0.2270
   9.200   0.9323   0.02295   0.01683   0.0148  0.0208  1.0000  -5.9484   0.0000   0.0000   0.0000   0.2255
   9.300   0.9304   0.02489   0.01902   0.0166  0.0200  1.0000  -5.9109   0.0000   0.0000   0.0000   0.2234
   9.400   0.9327   0.02603   0.02029   0.0178  0.0196  1.0000  -5.9390   0.0000   0.0000   0.0000   0.2221
   9.500   0.9395   0.02624   0.02055   0.0185  0.0194  1.0000  -6.0419   0.0000   0.0000   0.0000   0.2214
   9.600   0.9459   0.02651   0.02086   0.0193  0.0191  1.0000  -6.1410   0.0000   0.0000   0.0000   0.2206
   9.700   0.9520   0.02682   0.02123   0.0200  0.0187  1.0000  -6.2363   0.0000   0.0000   0.0000   0.2198
   9.800   0.9578   0.02717   0.02163   0.0208  0.0183  1.0000  -6.3287   0.0000   0.0000   0.0000   0.2190
   9.900   0.9633   0.02754   0.02206   0.0216  0.0179  1.0000  -6.4198   0.0000   0.0000   0.0000   0.2182
  10.000   0.9685   0.02792   0.02249   0.0224  0.0174  1.0000  -6.5114   0.0000   0.0000   0.0000   0.2174
  10.100   0.9736   0.02830   0.02291   0.0232  0.0169  1.0000  -6.6051   0.0000   0.0000   0.0000   0.2165
  10.200   0.9786   0.02865   0.02330   0.0240  0.0165  1.0000  -6.7017   0.0000   0.0000   0.0000   0.2157
  10.300   0.9833   0.02900   0.02369   0.0249  0.0160  1.0000  -6.7986   0.0000   0.0000   0.0000   0.2149
  10.400   0.9879   0.02935   0.02407   0.0257  0.0156  1.0000  -6.8963   0.0000   0.0000   0.0000   0.2140
  10.500   0.9922   0.02970   0.02446   0.0266  0.0152  1.0000  -6.9932   0.0000   0.0000   0.0000   0.2131
  10.600   0.9960   0.03010   0.02489   0.0274  0.0149  1.0000  -7.0855   0.0000   0.0000   0.0000   0.2122
  10.700   0.9991   0.03057   0.02541   0.0284  0.0146  1.0000  -7.1683   0.0000   0.0000   0.0000   0.2112
  10.800   1.0013   0.03112   0.02602   0.0295  0.0144  1.0000  -7.2394   0.0000   0.0000   0.0000   0.2101
  10.900   1.0031   0.03170   0.02664   0.0306  0.0142  1.0000  -7.3072   0.0000   0.0000   0.0000   0.2089
  11.000   1.0037   0.03227   0.02727   0.0318  0.0141  1.0000  -7.3678   0.0000   0.0000   0.0000   0.2076
  11.100   1.0032   0.03284   0.02789   0.0333  0.0139  1.0000  -7.4206   0.0000   0.0000   0.0000   0.2060
  11.200   1.0021   0.03344   0.02854   0.0347  0.0138  1.0000  -7.4681   0.0000   0.0000   0.0000   0.2043
  11.300   1.0006   0.03409   0.02923   0.0362  0.0136  1.0000  -7.5114   0.0000   0.0000   0.0000   0.2027
  11.400   0.9987   0.03479   0.02999   0.0375  0.0135  1.0000  -7.5498   0.0000   0.0000   0.0000   0.2012
  11.500   0.9964   0.03555   0.03081   0.0388  0.0134  1.0000  -7.5826   0.0000   0.0000   0.0000   0.1996
  11.600   0.9936   0.03639   0.03172   0.0400  0.0133  1.0000  -7.6088   0.0000   0.0000   0.0000   0.1982
  11.700   0.9903   0.03730   0.03270   0.0411  0.0132  1.0000  -7.6282   0.0000   0.0000   0.0000   0.1968
  11.800   0.9864   0.03829   0.03376   0.0421  0.0131  1.0000  -7.6406   0.0000   0.0000   0.0000   0.1955
  11.900   0.9819   0.03937   0.03492   0.0430  0.0130  1.0000  -7.6462   0.0000   0.0000   0.0000   0.1943
  12.000   0.9770   0.04054   0.03616   0.0436  0.0129  1.0000  -7.6455   0.0000   0.0000   0.0000   0.1932
  12.100   0.9716   0.04180   0.03749   0.0442  0.0129  1.0000  -7.6392   0.0000   0.0000   0.0000   0.1922
  12.200   0.9660   0.04316   0.03893   0.0445  0.0128  1.0000  -7.6279   0.0000   0.0000   0.0000   0.1914
  12.300   0.9600   0.04461   0.04046   0.0446  0.0128  1.0000  -7.6121   0.0000   0.0000   0.0000   0.1909
  12.400   0.9538   0.04616   0.04209   0.0445  0.0127  1.0000  -7.5922   0.0000   0.0000   0.0000   0.1905
  12.500   0.9474   0.04783   0.04383   0.0442  0.0127  1.0000  -7.5687   0.0000   0.0000   0.0000   0.1903
  12.600   0.9409   0.04961   0.04569   0.0436  0.0127  1.0000  -7.5418   0.0000   0.0000   0.0000   0.1904
  12.700   0.9343   0.05150   0.04766   0.0429  0.0127  1.0000  -7.5117   0.0000   0.0000   0.0000   0.1907
  12.800   0.9277   0.05350   0.04973   0.0419  0.0127  1.0000  -7.4784   0.0000   0.0000   0.0000   0.1912
  12.900   0.9211   0.05564   0.05194   0.0407  0.0127  1.0000  -7.4418   0.0000   0.0000   0.0000   0.1920
  13.000   0.9144   0.05790   0.05428   0.0394  0.0127  1.0000  -7.4016   0.0000   0.0000   0.0000   0.1930
  13.100   0.9076   0.06031   0.05675   0.0378  0.0127  1.0000  -7.3573   0.0000   0.0000   0.0000   0.1942
  13.200   0.9008   0.06284   0.05935   0.0361  0.0127  1.0000  -7.3084   0.0000   0.0000   0.0000   0.1956
  13.300   0.8937   0.06551   0.06209   0.0342  0.0128  1.0000  -7.2538   0.0000   0.0000   0.0000   0.1971
  13.400   0.8864   0.06835   0.06500   0.0322  0.0128  1.0000  -7.1916   0.0000   0.0000   0.0000   0.1989
  13.500   0.8786   0.07140   0.06811   0.0301  0.0129  1.0000  -7.1188   0.0000   0.0000   0.0000   0.2009
  13.600   0.8700   0.07474   0.07152   0.0277  0.0129  1.0000  -7.0295   0.0000   0.0000   0.0000   0.2031
  13.700   0.8595   0.07863   0.07549   0.0250  0.0131  1.0000  -6.9061   0.0000   0.0000   0.0000   0.2057
  13.800   0.8393   0.08492   0.08191   0.0206  0.0134  1.0000  -6.6222   0.0000   0.0000   0.0000   0.2102
  14.100   0.6473   0.14016   0.13723  -0.0056  0.0197  1.0000  -3.0872   0.0000   0.0000   0.0000   0.2455
  14.200   0.6460   0.14262   0.13968  -0.0065  0.0197  1.0000  -3.0293   0.0000   0.0000   0.0000   0.2469
  14.300   0.6453   0.14497   0.14202  -0.0074  0.0197  1.0000  -2.9785   0.0000   0.0000   0.0000   0.2482
  14.400   0.6451   0.14716   0.14421  -0.0082  0.0196  1.0000  -2.9369   0.0000   0.0000   0.0000   0.2495
  14.500   0.6457   0.14916   0.14620  -0.0091  0.0195  1.0000  -2.9070   0.0000   0.0000   0.0000   0.2508
  14.600   0.6469   0.15099   0.14803  -0.0100  0.0194  1.0000  -2.8867   0.0000   0.0000   0.0000   0.2520
  14.900   0.6377   0.16365   0.16068  -0.0146  0.0280  1.0000  -2.2400   0.0000   0.0000   0.0000   0.2600
  15.000   0.6385   0.16546   0.16249  -0.0155  0.0273  1.0000  -2.2116   0.0000   0.0000   0.0000   0.2613


