xflr5 v6.61

 Calculated polar for: SD8020-010-88

 1 1 Reynolds number fixed          Mach number fixed         

 xtrf =   1.000 (top)        1.000 (bottom)
 Mach =   0.000     Re =     0.125 e 6     Ncrit =   9.000

  alpha     CL        CD       CDp       Cm    Top Xtr Bot Xtr   Cpmin    Chinge    XCp    
 ------- -------- --------- --------- -------- ------- ------- -------- --------- ---------
 -10.000  -0.8664   0.05004   0.04453  -0.0318  1.0000  0.0443  -4.7772   0.0000   0.0000   0.0000   0.2044
  -9.900  -0.8704   0.04883   0.04319  -0.0306  1.0000  0.0447  -4.7843   0.0000   0.0000   0.0000   0.2060
  -9.800  -0.8729   0.04775   0.04199  -0.0295  1.0000  0.0453  -4.7804   0.0000   0.0000   0.0000   0.2075
  -9.700  -0.8739   0.04686   0.04097  -0.0283  1.0000  0.0460  -4.7641   0.0000   0.0000   0.0000   0.2090
  -9.600  -0.8734   0.04623   0.04022  -0.0272  1.0000  0.0468  -4.7329   0.0000   0.0000   0.0000   0.2103
  -9.500  -0.8708   0.04605   0.03992  -0.0262  1.0000  0.0477  -4.6803   0.0000   0.0000   0.0000   0.2115
  -9.400  -0.8689   0.04589   0.03966  -0.0250  1.0000  0.0484  -4.6302   0.0000   0.0000   0.0000   0.2129
  -9.300  -0.8744   0.04361   0.03718  -0.0237  1.0000  0.0487  -4.6717   0.0000   0.0000   0.0000   0.2146
  -9.200  -0.8784   0.04138   0.03476  -0.0224  1.0000  0.0492  -4.7043   0.0000   0.0000   0.0000   0.2163
  -9.100  -0.8804   0.03933   0.03253  -0.0213  1.0000  0.0497  -4.7211   0.0000   0.0000   0.0000   0.2177
  -9.000  -0.8800   0.03757   0.03062  -0.0202  1.0000  0.0504  -4.7172   0.0000   0.0000   0.0000   0.2190
  -8.900  -0.8778   0.03610   0.02901  -0.0192  1.0000  0.0510  -4.6960   0.0000   0.0000   0.0000   0.2201
  -8.800  -0.8742   0.03486   0.02767  -0.0183  1.0000  0.0518  -4.6588   0.0000   0.0000   0.0000   0.2211
  -8.700  -0.8696   0.03383   0.02657  -0.0175  1.0000  0.0527  -4.6085   0.0000   0.0000   0.0000   0.2220
  -8.600  -0.8644   0.03295   0.02561  -0.0168  1.0000  0.0537  -4.5509   0.0000   0.0000   0.0000   0.2229
  -8.500  -0.8589   0.03215   0.02474  -0.0160  1.0000  0.0547  -4.4902   0.0000   0.0000   0.0000   0.2238
  -8.400  -0.8532   0.03138   0.02389  -0.0152  1.0000  0.0559  -4.4282   0.0000   0.0000   0.0000   0.2247
  -8.300  -0.8472   0.03063   0.02305  -0.0144  1.0000  0.0570  -4.3656   0.0000   0.0000   0.0000   0.2256
  -8.200  -0.8410   0.02989   0.02221  -0.0136  1.0000  0.0583  -4.3025   0.0000   0.0000   0.0000   0.2265
  -8.100  -0.8345   0.02918   0.02140  -0.0129  1.0000  0.0597  -4.2372   0.0000   0.0000   0.0000   0.2273
  -8.000  -0.8277   0.02870   0.02083  -0.0121  1.0000  0.0618  -4.1601   0.0000   0.0000   0.0000   0.2282
  -7.900  -0.8207   0.02832   0.02036  -0.0114  1.0000  0.0640  -4.0804   0.0000   0.0000   0.0000   0.2290
  -7.800  -0.8136   0.02801   0.01994  -0.0107  1.0000  0.0659  -4.0008   0.0000   0.0000   0.0000   0.2299
  -7.700  -0.8062   0.02776   0.01957  -0.0099  1.0000  0.0672  -3.9314   0.0000   0.0000   0.0000   0.2308
  -7.600  -0.8001   0.02591   0.01762  -0.0092  1.0000  0.0695  -3.9150   0.0000   0.0000   0.0000   0.2316
  -7.500  -0.7931   0.02481   0.01652  -0.0086  1.0000  0.0721  -3.8683   0.0000   0.0000   0.0000   0.2324
  -7.400  -0.7858   0.02420   0.01591  -0.0080  1.0000  0.0747  -3.8065   0.0000   0.0000   0.0000   0.2332
  -7.300  -0.7784   0.02370   0.01540  -0.0073  1.0000  0.0777  -3.7441   0.0000   0.0000   0.0000   0.2341
  -7.200  -0.7709   0.02320   0.01486  -0.0066  1.0000  0.0812  -3.6843   0.0000   0.0000   0.0000   0.2350
  -7.100  -0.7631   0.02274   0.01431  -0.0058  1.0000  0.0851  -3.6263   0.0000   0.0000   0.0000   0.2359
  -7.000  -0.7552   0.02236   0.01382  -0.0051  1.0000  0.0885  -3.5661   0.0000   0.0000   0.0000   0.2369
  -6.900  -0.7493   0.02127   0.01285  -0.0044  1.0000  0.0946  -3.5161   0.0000   0.0000   0.0000   0.2379
  -6.800  -0.7423   0.02091   0.01243  -0.0036  1.0000  0.1002  -3.4454   0.0000   0.0000   0.0000   0.2390
  -6.700  -0.7346   0.02059   0.01205  -0.0029  1.0000  0.1064  -3.3782   0.0000   0.0000   0.0000   0.2400
  -6.600  -0.7275   0.02006   0.01151  -0.0022  1.0000  0.1128  -3.3145   0.0000   0.0000   0.0000   0.2410
  -6.500  -0.7211   0.01969   0.01122  -0.0015  1.0000  0.1199  -3.2411   0.0000   0.0000   0.0000   0.2421
  -6.400  -0.7135   0.01951   0.01099  -0.0008  1.0000  0.1276  -3.1650   0.0000   0.0000   0.0000   0.2430
  -6.300  -0.7062   0.01911   0.01058  -0.0002  1.0000  0.1351  -3.0951   0.0000   0.0000   0.0000   0.2441
  -6.200  -0.6994   0.01877   0.01032   0.0005  1.0000  0.1426  -3.0210   0.0000   0.0000   0.0000   0.2451
  -6.100  -0.6916   0.01861   0.01011   0.0012  1.0000  0.1512  -2.9444   0.0000   0.0000   0.0000   0.2462
  -6.000  -0.6847   0.01819   0.00976   0.0019  1.0000  0.1597  -2.8735   0.0000   0.0000   0.0000   0.2473
  -5.900  -0.6775   0.01795   0.00955   0.0025  1.0000  0.1685  -2.7984   0.0000   0.0000   0.0000   0.2484
  -5.800  -0.6694   0.01775   0.00928   0.0032  1.0000  0.1775  -2.7250   0.0000   0.0000   0.0000   0.2494
  -5.700  -0.6628   0.01730   0.00897   0.0039  1.0000  0.1864  -2.6552   0.0000   0.0000   0.0000   0.2507
  -5.600  -0.6550   0.01708   0.00872   0.0046  1.0000  0.1965  -2.5822   0.0000   0.0000   0.0000   0.2518
  -5.500  -0.6481   0.01672   0.00845   0.0053  1.0000  0.2066  -2.5123   0.0000   0.0000   0.0000   0.2531
  -5.400  -0.6406   0.01650   0.00824   0.0059  1.0000  0.2182  -2.4397   0.0000   0.0000   0.0000   0.2543
  -5.300  -0.6336   0.01618   0.00800   0.0067  1.0000  0.2297  -2.3701   0.0000   0.0000   0.0000   0.2556
  -5.200  -0.6260   0.01596   0.00779   0.0073  1.0000  0.2426  -2.2988   0.0000   0.0000   0.0000   0.2569
  -5.100  -0.6192   0.01564   0.00759   0.0081  1.0000  0.2548  -2.2304   0.0000   0.0000   0.0000   0.2584
  -5.000  -0.6114   0.01545   0.00737   0.0088  1.0000  0.2690  -2.1705   0.0000   0.0000   0.0000   0.2597
  -4.900  -0.6047   0.01514   0.00720   0.0095  1.0000  0.2818  -2.1142   0.0000   0.0000   0.0000   0.2612
  -4.800  -0.5973   0.01490   0.00700   0.0102  1.0000  0.2963  -2.0568   0.0000   0.0000   0.0000   0.2627
  -4.700  -0.5901   0.01468   0.00684   0.0110  1.0000  0.3114  -2.0040   0.0000   0.0000   0.0000   0.2642
  -4.600  -0.5831   0.01444   0.00663   0.0117  1.0000  0.3261  -1.9583   0.0000   0.0000   0.0000   0.2658
  -4.500  -0.5759   0.01424   0.00648   0.0125  1.0000  0.3426  -1.9117   0.0000   0.0000   0.0000   0.2674
  -4.400  -0.5687   0.01405   0.00635   0.0132  1.0000  0.3600  -1.8654   0.0000   0.0000   0.0000   0.2690
  -4.300  -0.5619   0.01384   0.00625   0.0140  1.0000  0.3767  -1.8199   0.0000   0.0000   0.0000   0.2708
  -4.200  -0.5549   0.01365   0.00614   0.0148  1.0000  0.3942  -1.7742   0.0000   0.0000   0.0000   0.2727
  -4.100  -0.5478   0.01348   0.00603   0.0156  1.0000  0.4124  -1.7286   0.0000   0.0000   0.0000   0.2745
  -4.000  -0.5406   0.01333   0.00593   0.0164  1.0000  0.4310  -1.6833   0.0000   0.0000   0.0000   0.2764
  -3.900  -0.5338   0.01314   0.00586   0.0172  1.0000  0.4485  -1.6386   0.0000   0.0000   0.0000   0.2784
  -3.800  -0.5267   0.01298   0.00578   0.0180  1.0000  0.4661  -1.5939   0.0000   0.0000   0.0000   0.2805
  -3.700  -0.5197   0.01284   0.00571   0.0189  1.0000  0.4844  -1.5494   0.0000   0.0000   0.0000   0.2826
  -3.600  -0.5126   0.01271   0.00564   0.0197  1.0000  0.5035  -1.5052   0.0000   0.0000   0.0000   0.2848
  -3.500  -0.5057   0.01258   0.00560   0.0206  1.0000  0.5224  -1.4616   0.0000   0.0000   0.0000   0.2871
  -3.400  -0.4989   0.01245   0.00556   0.0215  1.0000  0.5411  -1.4183   0.0000   0.0000   0.0000   0.2896
  -3.300  -0.4920   0.01234   0.00553   0.0224  1.0000  0.5600  -1.3752   0.0000   0.0000   0.0000   0.2921
  -3.200  -0.4850   0.01224   0.00550   0.0233  1.0000  0.5789  -1.3323   0.0000   0.0000   0.0000   0.2947
  -3.100  -0.4781   0.01215   0.00548   0.0242  1.0000  0.5981  -1.2899   0.0000   0.0000   0.0000   0.2973
  -3.000  -0.4712   0.01207   0.00547   0.0251  1.0000  0.6172  -1.2479   0.0000   0.0000   0.0000   0.3001
  -2.900  -0.4644   0.01198   0.00547   0.0261  1.0000  0.6356  -1.2061   0.0000   0.0000   0.0000   0.3031
  -2.800  -0.4574   0.01191   0.00548   0.0271  1.0000  0.6539  -1.1645   0.0000   0.0000   0.0000   0.3061
  -2.700  -0.4506   0.01186   0.00549   0.0280  1.0000  0.6723  -1.1233   0.0000   0.0000   0.0000   0.3092
  -2.600  -0.4438   0.01181   0.00545   0.0290  1.0000  0.6910  -1.0822   0.0000   0.0000   0.0000   0.3124
  -2.500  -0.4369   0.01176   0.00548   0.0300  1.0000  0.7092  -1.0563   0.0000   0.0000   0.0000   0.3158
  -2.400  -0.4298   0.01173   0.00551   0.0310  1.0000  0.7269  -1.0338   0.0000   0.0000   0.0000   0.3193
  -2.300  -0.4228   0.01170   0.00555   0.0320  1.0000  0.7449  -1.0115   0.0000   0.0000   0.0000   0.3229
  -2.200  -0.4158   0.01169   0.00558   0.0329  1.0000  0.7631  -0.9895   0.0000   0.0000   0.0000   0.3266
  -2.100  -0.4085   0.01168   0.00562   0.0339  1.0000  0.7810  -0.9670   0.0000   0.0000   0.0000   0.3304
  -2.000  -0.4000   0.01169   0.00569   0.0346  1.0000  0.7983  -0.9431   0.0000   0.0000   0.0000   0.3341
  -1.900  -0.3911   0.01171   0.00576   0.0353  1.0000  0.8160  -0.9188   0.0000   0.0000   0.0000   0.3378
  -1.800  -0.3816   0.01175   0.00583   0.0358  1.0000  0.8342  -0.8940   0.0000   0.0000   0.0000   0.3415
  -1.700  -0.3705   0.01182   0.00592   0.0361  1.0000  0.8524  -0.8672   0.0000   0.0000   0.0000   0.3450
  -1.600  -0.3545   0.01193   0.00606   0.0354  1.0000  0.8683  -0.8345   0.0000   0.0000   0.0000   0.3475
  -1.500  -0.3379   0.01206   0.00620   0.0345  1.0000  0.8841  -0.8013   0.0000   0.0000   0.0000   0.3500
  -1.400  -0.3215   0.01221   0.00634   0.0337  1.0000  0.9001  -0.7688   0.0000   0.0000   0.0000   0.3526
  -1.300  -0.2964   0.01241   0.00653   0.0312  1.0000  0.9107  -0.7258   0.0000   0.0000   0.0000   0.3531
  -1.200  -0.2796   0.01257   0.00663   0.0302  1.0000  0.9243  -0.6984   0.0000   0.0000   0.0000   0.3558
  -1.100  -0.2523   0.01278   0.00681   0.0272  1.0000  0.9316  -0.6609   0.0000   0.0000   0.0000   0.3557
  -1.000  -0.2296   0.01297   0.00697   0.0250  1.0000  0.9406  -0.6284   0.0000   0.0000   0.0000   0.3569
  -0.900  -0.2082   0.01314   0.00712   0.0231  1.0000  0.9492  -0.5976   0.0000   0.0000   0.0000   0.3587
  -0.800  -0.1814   0.01330   0.00725   0.0200  1.0000  0.9546  -0.5617   0.0000   0.0000   0.0000   0.3584
  -0.700  -0.1578   0.01344   0.00737   0.0176  1.0000  0.9618  -0.5342   0.0000   0.0000   0.0000   0.3593
  -0.600  -0.1381   0.01360   0.00750   0.0158  1.0000  0.9703  -0.5102   0.0000   0.0000   0.0000   0.3621
  -0.500  -0.1108   0.01366   0.00755   0.0125  1.0000  0.9749  -0.4801   0.0000   0.0000   0.0000   0.3607
  -0.400  -0.0854   0.01373   0.00759   0.0095  1.0000  0.9808  -0.4539   0.0000   0.0000   0.0000   0.3596
  -0.300  -0.0617   0.01382   0.00767   0.0069  1.0000  0.9873  -0.4307   0.0000   0.0000   0.0000   0.3592
   0.000  -0.0001   0.01388   0.00771   0.0000  1.0000  1.0000  -0.3715   0.0000   0.0000   0.0000   0.3620
   0.300   0.0617   0.01382   0.00767  -0.0069  0.9872  1.0000  -0.4305   0.0000   0.0000   0.0000   0.3594
   0.400   0.0854   0.01373   0.00759  -0.0095  0.9807  1.0000  -0.4538   0.0000   0.0000   0.0000   0.3597
   0.500   0.1108   0.01366   0.00755  -0.0125  0.9749  1.0000  -0.4804   0.0000   0.0000   0.0000   0.3608
   0.600   0.1381   0.01359   0.00750  -0.0158  0.9702  1.0000  -0.5105   0.0000   0.0000   0.0000   0.3622
   0.700   0.1578   0.01344   0.00737  -0.0176  0.9618  1.0000  -0.5345   0.0000   0.0000   0.0000   0.3593
   0.800   0.1814   0.01330   0.00725  -0.0201  0.9546  1.0000  -0.5620   0.0000   0.0000   0.0000   0.3584
   0.900   0.2082   0.01314   0.00711  -0.0231  0.9492  1.0000  -0.5972   0.0000   0.0000   0.0000   0.3587
   1.000   0.2296   0.01296   0.00697  -0.0251  0.9406  1.0000  -0.6279   0.0000   0.0000   0.0000   0.3570
   1.100   0.2523   0.01278   0.00681  -0.0272  0.9317  1.0000  -0.6604   0.0000   0.0000   0.0000   0.3557
   1.200   0.2795   0.01257   0.00663  -0.0302  0.9244  1.0000  -0.6979   0.0000   0.0000   0.0000   0.3558
   1.300   0.2964   0.01241   0.00652  -0.0312  0.9108  1.0000  -0.7253   0.0000   0.0000   0.0000   0.3531
   1.400   0.3215   0.01220   0.00633  -0.0337  0.9002  1.0000  -0.7684   0.0000   0.0000   0.0000   0.3526
   1.500   0.3378   0.01206   0.00620  -0.0345  0.8843  1.0000  -0.8008   0.0000   0.0000   0.0000   0.3500
   1.600   0.3545   0.01193   0.00606  -0.0354  0.8685  1.0000  -0.8341   0.0000   0.0000   0.0000   0.3476
   1.700   0.3705   0.01182   0.00592  -0.0361  0.8526  1.0000  -0.8669   0.0000   0.0000   0.0000   0.3450
   1.800   0.3815   0.01175   0.00583  -0.0358  0.8344  1.0000  -0.8934   0.0000   0.0000   0.0000   0.3415
   1.900   0.3910   0.01171   0.00576  -0.0353  0.8161  1.0000  -0.9183   0.0000   0.0000   0.0000   0.3378
   2.000   0.3999   0.01169   0.00569  -0.0346  0.7984  1.0000  -0.9426   0.0000   0.0000   0.0000   0.3341
   2.100   0.4085   0.01168   0.00562  -0.0339  0.7813  1.0000  -0.9666   0.0000   0.0000   0.0000   0.3304
   2.200   0.4158   0.01169   0.00558  -0.0329  0.7632  1.0000  -0.9891   0.0000   0.0000   0.0000   0.3266
   2.300   0.4227   0.01170   0.00554  -0.0320  0.7450  1.0000  -1.0111   0.0000   0.0000   0.0000   0.3229
   2.400   0.4298   0.01173   0.00551  -0.0310  0.7271  1.0000  -1.0334   0.0000   0.0000   0.0000   0.3193
   2.500   0.4368   0.01176   0.00547  -0.0300  0.7093  1.0000  -1.0559   0.0000   0.0000   0.0000   0.3158
   2.600   0.4438   0.01181   0.00544  -0.0290  0.6911  1.0000  -1.0834   0.0000   0.0000   0.0000   0.3124
   2.700   0.4505   0.01185   0.00548  -0.0280  0.6724  1.0000  -1.1227   0.0000   0.0000   0.0000   0.3092
   2.800   0.4574   0.01191   0.00548  -0.0270  0.6540  1.0000  -1.1639   0.0000   0.0000   0.0000   0.3061
   2.900   0.4643   0.01198   0.00547  -0.0261  0.6357  1.0000  -1.2055   0.0000   0.0000   0.0000   0.3031
   3.000   0.4712   0.01206   0.00546  -0.0251  0.6173  1.0000  -1.2473   0.0000   0.0000   0.0000   0.3001
   3.100   0.4780   0.01215   0.00547  -0.0242  0.5982  1.0000  -1.2893   0.0000   0.0000   0.0000   0.2973
   3.200   0.4850   0.01223   0.00550  -0.0233  0.5791  1.0000  -1.3318   0.0000   0.0000   0.0000   0.2947
   3.300   0.4919   0.01233   0.00553  -0.0224  0.5601  1.0000  -1.3746   0.0000   0.0000   0.0000   0.2921
   3.400   0.4989   0.01245   0.00556  -0.0215  0.5414  1.0000  -1.4177   0.0000   0.0000   0.0000   0.2896
   3.500   0.5057   0.01258   0.00559  -0.0206  0.5227  1.0000  -1.4610   0.0000   0.0000   0.0000   0.2871
   3.600   0.5126   0.01271   0.00564  -0.0197  0.5037  1.0000  -1.5046   0.0000   0.0000   0.0000   0.2848
   3.700   0.5196   0.01284   0.00571  -0.0189  0.4846  1.0000  -1.5487   0.0000   0.0000   0.0000   0.2826
   3.800   0.5267   0.01298   0.00578  -0.0180  0.4662  1.0000  -1.5932   0.0000   0.0000   0.0000   0.2805
   3.900   0.5337   0.01314   0.00586  -0.0172  0.4485  1.0000  -1.6379   0.0000   0.0000   0.0000   0.2784
   4.000   0.5406   0.01332   0.00593  -0.0164  0.4310  1.0000  -1.6826   0.0000   0.0000   0.0000   0.2764
   4.100   0.5477   0.01348   0.00603  -0.0156  0.4124  1.0000  -1.7279   0.0000   0.0000   0.0000   0.2745
   4.200   0.5549   0.01365   0.00614  -0.0148  0.3942  1.0000  -1.7735   0.0000   0.0000   0.0000   0.2726
   4.300   0.5619   0.01384   0.00625  -0.0140  0.3767  1.0000  -1.8192   0.0000   0.0000   0.0000   0.2708
   4.400   0.5687   0.01405   0.00635  -0.0132  0.3600  1.0000  -1.8647   0.0000   0.0000   0.0000   0.2690
   4.500   0.5758   0.01424   0.00648  -0.0125  0.3426  1.0000  -1.9110   0.0000   0.0000   0.0000   0.2674
   4.600   0.5831   0.01444   0.00663  -0.0117  0.3261  1.0000  -1.9576   0.0000   0.0000   0.0000   0.2658
   4.700   0.5901   0.01468   0.00683  -0.0110  0.3115  1.0000  -2.0033   0.0000   0.0000   0.0000   0.2642
   4.800   0.5973   0.01490   0.00700  -0.0102  0.2964  1.0000  -2.0547   0.0000   0.0000   0.0000   0.2627
   4.900   0.6047   0.01514   0.00719  -0.0095  0.2819  1.0000  -2.1120   0.0000   0.0000   0.0000   0.2612
   5.000   0.6114   0.01545   0.00737  -0.0088  0.2690  1.0000  -2.1683   0.0000   0.0000   0.0000   0.2597
   5.100   0.6192   0.01564   0.00758  -0.0081  0.2548  1.0000  -2.2287   0.0000   0.0000   0.0000   0.2584
   5.200   0.6260   0.01596   0.00779  -0.0073  0.2426  1.0000  -2.2972   0.0000   0.0000   0.0000   0.2569
   5.300   0.6335   0.01617   0.00800  -0.0067  0.2296  1.0000  -2.3684   0.0000   0.0000   0.0000   0.2556
   5.400   0.6406   0.01649   0.00823  -0.0059  0.2181  1.0000  -2.4381   0.0000   0.0000   0.0000   0.2543
   5.500   0.6480   0.01671   0.00844  -0.0053  0.2064  1.0000  -2.5106   0.0000   0.0000   0.0000   0.2531
   5.600   0.6550   0.01708   0.00872  -0.0046  0.1963  1.0000  -2.5804   0.0000   0.0000   0.0000   0.2518
   5.700   0.6628   0.01730   0.00897  -0.0039  0.1863  1.0000  -2.6533   0.0000   0.0000   0.0000   0.2507
   5.800   0.6694   0.01776   0.00928  -0.0032  0.1773  1.0000  -2.7228   0.0000   0.0000   0.0000   0.2494
   5.900   0.6774   0.01795   0.00955  -0.0025  0.1683  1.0000  -2.7964   0.0000   0.0000   0.0000   0.2484
   6.000   0.6846   0.01819   0.00976  -0.0019  0.1595  1.0000  -2.8713   0.0000   0.0000   0.0000   0.2473
   6.100   0.6916   0.01861   0.01011  -0.0012  0.1510  1.0000  -2.9421   0.0000   0.0000   0.0000   0.2461
   6.200   0.6994   0.01877   0.01033  -0.0005  0.1424  1.0000  -3.0184   0.0000   0.0000   0.0000   0.2451
   6.300   0.7061   0.01913   0.01060   0.0002  0.1349  1.0000  -3.0921   0.0000   0.0000   0.0000   0.2441
   6.400   0.7134   0.01953   0.01101   0.0008  0.1275  1.0000  -3.1619   0.0000   0.0000   0.0000   0.2430
   6.500   0.7210   0.01971   0.01123   0.0015  0.1198  1.0000  -3.2378   0.0000   0.0000   0.0000   0.2420
   6.600   0.7275   0.02009   0.01153   0.0022  0.1127  1.0000  -3.3111   0.0000   0.0000   0.0000   0.2410
   6.700   0.7346   0.02061   0.01206   0.0029  0.1063  1.0000  -3.3753   0.0000   0.0000   0.0000   0.2399
   6.800   0.7423   0.02092   0.01244   0.0036  0.1001  1.0000  -3.4428   0.0000   0.0000   0.0000   0.2389
   6.900   0.7493   0.02128   0.01286   0.0044  0.0946  1.0000  -3.5136   0.0000   0.0000   0.0000   0.2379
   7.000   0.7553   0.02233   0.01379   0.0051  0.0887  1.0000  -3.5652   0.0000   0.0000   0.0000   0.2369
   7.100   0.7632   0.02276   0.01432   0.0058  0.0852  1.0000  -3.6244   0.0000   0.0000   0.0000   0.2360
   7.200   0.7709   0.02322   0.01487   0.0066  0.0814  1.0000  -3.6827   0.0000   0.0000   0.0000   0.2350
   7.300   0.7785   0.02371   0.01542   0.0073  0.0778  1.0000  -3.7425   0.0000   0.0000   0.0000   0.2341
   7.400   0.7859   0.02421   0.01593   0.0079  0.0748  1.0000  -3.8050   0.0000   0.0000   0.0000   0.2332
   7.500   0.7932   0.02481   0.01652   0.0086  0.0723  1.0000  -3.8672   0.0000   0.0000   0.0000   0.2324
   7.600   0.8003   0.02584   0.01755   0.0092  0.0698  1.0000  -3.9162   0.0000   0.0000   0.0000   0.2317
   7.700   0.8063   0.02783   0.01964   0.0099  0.0673  1.0000  -3.9292   0.0000   0.0000   0.0000   0.2309
   7.800   0.8136   0.02807   0.02000   0.0106  0.0661  1.0000  -3.9996   0.0000   0.0000   0.0000   0.2299
   7.900   0.8208   0.02838   0.02042   0.0114  0.0643  1.0000  -4.0792   0.0000   0.0000   0.0000   0.2290
   8.000   0.8277   0.02875   0.02089   0.0121  0.0621  1.0000  -4.1588   0.0000   0.0000   0.0000   0.2282
   8.100   0.8346   0.02922   0.02143   0.0128  0.0600  1.0000  -4.2367   0.0000   0.0000   0.0000   0.2274
   8.200   0.8411   0.02991   0.02223   0.0136  0.0585  1.0000  -4.3026   0.0000   0.0000   0.0000   0.2265
   8.300   0.8473   0.03066   0.02307   0.0144  0.0572  1.0000  -4.3655   0.0000   0.0000   0.0000   0.2256
   8.400   0.8533   0.03141   0.02392   0.0152  0.0560  1.0000  -4.4277   0.0000   0.0000   0.0000   0.2247
   8.500   0.8590   0.03218   0.02477   0.0160  0.0549  1.0000  -4.4894   0.0000   0.0000   0.0000   0.2238
   8.600   0.8645   0.03298   0.02565   0.0167  0.0538  1.0000  -4.5500   0.0000   0.0000   0.0000   0.2229
   8.700   0.8697   0.03385   0.02659   0.0175  0.0529  1.0000  -4.6078   0.0000   0.0000   0.0000   0.2221
   8.800   0.8743   0.03485   0.02767   0.0183  0.0520  1.0000  -4.6590   0.0000   0.0000   0.0000   0.2211
   8.900   0.8780   0.03606   0.02897   0.0192  0.0512  1.0000  -4.6980   0.0000   0.0000   0.0000   0.2202
   9.000   0.8804   0.03750   0.03054   0.0202  0.0505  1.0000  -4.7214   0.0000   0.0000   0.0000   0.2191
   9.100   0.8810   0.03923   0.03242   0.0212  0.0498  1.0000  -4.7274   0.0000   0.0000   0.0000   0.2178
   9.200   0.8792   0.04126   0.03463   0.0224  0.0492  1.0000  -4.7122   0.0000   0.0000   0.0000   0.2164
   9.300   0.8753   0.04349   0.03705   0.0237  0.0488  1.0000  -4.6802   0.0000   0.0000   0.0000   0.2147
   9.400   0.8698   0.04577   0.03953   0.0250  0.0484  1.0000  -4.6387   0.0000   0.0000   0.0000   0.2130
   9.500   0.8707   0.04616   0.04003   0.0261  0.0478  1.0000  -4.6781   0.0000   0.0000   0.0000   0.2116
   9.600   0.8735   0.04628   0.04027   0.0272  0.0469  1.0000  -4.7333   0.0000   0.0000   0.0000   0.2103
   9.700   0.8741   0.04688   0.04100   0.0283  0.0461  1.0000  -4.7657   0.0000   0.0000   0.0000   0.2090
   9.800   0.8732   0.04776   0.04200   0.0294  0.0453  1.0000  -4.7825   0.0000   0.0000   0.0000   0.2076
   9.900   0.8707   0.04884   0.04320   0.0306  0.0448  1.0000  -4.7867   0.0000   0.0000   0.0000   0.2061
  10.000   0.8668   0.05005   0.04453   0.0317  0.0444  1.0000  -4.7798   0.0000   0.0000   0.0000   0.2045
  10.100   0.8615   0.05137   0.04596   0.0329  0.0442  1.0000  -4.7632   0.0000   0.0000   0.0000   0.2028
  10.200   0.8550   0.05273   0.04743   0.0341  0.0441  1.0000  -4.7390   0.0000   0.0000   0.0000   0.2010
  10.300   0.8468   0.05400   0.04878   0.0355  0.0441  1.0000  -4.7108   0.0000   0.0000   0.0000   0.1989
  10.400   0.8379   0.05528   0.05013   0.0369  0.0442  1.0000  -4.6799   0.0000   0.0000   0.0000   0.1967
  10.500   0.8287   0.05663   0.05156   0.0379  0.0443  1.0000  -4.6458   0.0000   0.0000   0.0000   0.1948
  10.600   0.8191   0.05811   0.05310   0.0386  0.0444  1.0000  -4.6081   0.0000   0.0000   0.0000   0.1933
  10.700   0.8092   0.05972   0.05477   0.0389  0.0445  1.0000  -4.5663   0.0000   0.0000   0.0000   0.1922
  10.800   0.7991   0.06149   0.05661   0.0388  0.0447  1.0000  -4.5199   0.0000   0.0000   0.0000   0.1915
  10.900   0.7886   0.06345   0.05863   0.0383  0.0449  1.0000  -4.4680   0.0000   0.0000   0.0000   0.1914
  11.000   0.7777   0.06567   0.06090   0.0373  0.0451  1.0000  -4.4085   0.0000   0.0000   0.0000   0.1918
  11.100   0.7662   0.06822   0.06349   0.0359  0.0455  1.0000  -4.3385   0.0000   0.0000   0.0000   0.1927
  11.200   0.7541   0.07116   0.06647   0.0341  0.0461  1.0000  -4.2554   0.0000   0.0000   0.0000   0.1942
  11.300   0.7413   0.07458   0.06991   0.0320  0.0468  1.0000  -4.1565   0.0000   0.0000   0.0000   0.1962
  11.400   0.7279   0.07857   0.07391   0.0298  0.0476  1.0000  -4.0385   0.0000   0.0000   0.0000   0.1982
  11.500   0.6533   0.10198   0.09736   0.0123  0.0630  1.0000  -2.9077   0.0000   0.0000   0.0000   0.2211
  11.600   0.6499   0.10457   0.09994   0.0114  0.0639  1.0000  -2.8638   0.0000   0.0000   0.0000   0.2223
  11.700   0.6475   0.10700   0.10235   0.0107  0.0649  1.0000  -2.8323   0.0000   0.0000   0.0000   0.2232
  11.800   0.6463   0.10930   0.10464   0.0106  0.0660  1.0000  -2.8198   0.0000   0.0000   0.0000   0.2232
  11.900   0.6580   0.10973   0.10513   0.0118  0.0691  1.0000  -2.8810   0.0000   0.0000   0.0000   0.2217
  12.000   0.6037   0.12601   0.12120  -0.0012  0.1007  1.0000  -2.0690   0.0000   0.0000   0.0000   0.2423
  12.100   0.6034   0.12776   0.12294  -0.0019  0.0998  1.0000  -2.0570   0.0000   0.0000   0.0000   0.2434
  12.200   0.6036   0.12946   0.12464  -0.0026  0.0988  1.0000  -2.0485   0.0000   0.0000   0.0000   0.2444
  12.300   0.6041   0.13111   0.12628  -0.0031  0.0978  1.0000  -2.0436   0.0000   0.0000   0.0000   0.2452
  12.400   0.6052   0.13270   0.12788  -0.0036  0.0968  1.0000  -2.0428   0.0000   0.0000   0.0000   0.2459
  12.500   0.6069   0.13422   0.12945  -0.0040  0.0958  1.0000  -2.0456   0.0000   0.0000   0.0000   0.2464
  12.600   0.6109   0.13546   0.13069  -0.0039  0.0942  1.0000  -2.0731   0.0000   0.0000   0.0000   0.2461
  13.000   0.3851   0.09342   0.08963  -0.0024  0.1078  1.0000  -1.2255   0.0000   0.0000   0.0000   0.2529
  13.100   0.3770   0.09368   0.08986  -0.0043  0.1061  1.0000  -1.1607   0.0000   0.0000   0.0000   0.2583
  13.200   0.3746   0.09454   0.09073  -0.0056  0.1038  1.0000  -1.1309   0.0000   0.0000   0.0000   0.2618
  13.300   0.3753   0.09569   0.09188  -0.0065  0.1016  1.0000  -1.1223   0.0000   0.0000   0.0000   0.2640
  13.400   0.3772   0.09691   0.09309  -0.0071  0.0998  1.0000  -1.1222   0.0000   0.0000   0.0000   0.2657
  13.500   0.3798   0.09814   0.09432  -0.0077  0.0980  1.0000  -1.1279   0.0000   0.0000   0.0000   0.2670
  13.600   0.3830   0.09937   0.09556  -0.0082  0.0964  1.0000  -1.1388   0.0000   0.0000   0.0000   0.2679
  13.700   0.3869   0.10062   0.09682  -0.0085  0.0948  1.0000  -1.1556   0.0000   0.0000   0.0000   0.2685
  13.800   0.3918   0.10192   0.09812  -0.0087  0.0934  1.0000  -1.1800   0.0000   0.0000   0.0000   0.2686
  13.900   0.3982   0.10336   0.09956  -0.0087  0.0921  1.0000  -1.2157   0.0000   0.0000   0.0000   0.2680
  14.000   0.4109   0.10544   0.10166  -0.0078  0.0904  1.0000  -1.2942   0.0000   0.0000   0.0000   0.2650
  14.100   0.4284   0.11173   0.10794  -0.0064  0.0880  1.0000  -1.3852   0.0000   0.0000   0.0000   0.2606
  14.200   0.4276   0.11270   0.10891  -0.0075  0.0879  1.0000  -1.3597   0.0000   0.0000   0.0000   0.2632
  14.300   0.4258   0.11351   0.10971  -0.0088  0.0876  1.0000  -1.3279   0.0000   0.0000   0.0000   0.2663
  14.400   0.4233   0.11410   0.11029  -0.0101  0.0873  1.0000  -1.2916   0.0000   0.0000   0.0000   0.2696
  14.500   0.4194   0.11443   0.11062  -0.0116  0.0868  1.0000  -1.2481   0.0000   0.0000   0.0000   0.2734
  14.600   0.4147   0.11460   0.11078  -0.0132  0.0860  1.0000  -1.1993   0.0000   0.0000   0.0000   0.2777
  14.700   0.4112   0.11495   0.11111  -0.0148  0.0842  1.0000  -1.1539   0.0000   0.0000   0.0000   0.2819
  14.800   0.4112   0.11586   0.11202  -0.0160  0.0815  1.0000  -1.1331   0.0000   0.0000   0.0000   0.2846
  14.900   0.4131   0.11704   0.11320  -0.0167  0.0791  1.0000  -1.1296   0.0000   0.0000   0.0000   0.2861
  15.000   0.4158   0.11832   0.11449  -0.0173  0.0774  1.0000  -1.1311   0.0000   0.0000   0.0000   0.2873


