xflr5 v6.61

 Calculated polar for: SD8020-010-88

 1 1 Reynolds number fixed          Mach number fixed         

 xtrf =   1.000 (top)        1.000 (bottom)
 Mach =   0.000     Re =     0.475 e 6     Ncrit =   9.000

  alpha     CL        CD       CDp       Cm    Top Xtr Bot Xtr   Cpmin    Chinge    XCp    
 ------- -------- --------- --------- -------- ------- ------- -------- --------- ---------
 -10.000  -1.0022   0.02223   0.01660  -0.0174  1.0000  0.0132  -7.1634   0.0000   0.0000   0.0000   0.2230
  -9.900  -0.9989   0.02164   0.01597  -0.0163  1.0000  0.0138  -7.0868   0.0000   0.0000   0.0000   0.2242
  -9.800  -0.9935   0.02130   0.01561  -0.0155  1.0000  0.0143  -6.9773   0.0000   0.0000   0.0000   0.2251
  -9.700  -0.9869   0.02106   0.01537  -0.0148  1.0000  0.0148  -6.8534   0.0000   0.0000   0.0000   0.2258
  -9.600  -0.9799   0.02087   0.01518  -0.0142  1.0000  0.0153  -6.7264   0.0000   0.0000   0.0000   0.2264
  -9.500  -0.9728   0.02068   0.01498  -0.0136  1.0000  0.0158  -6.6011   0.0000   0.0000   0.0000   0.2270
  -9.400  -0.9657   0.02048   0.01477  -0.0130  1.0000  0.0164  -6.4796   0.0000   0.0000   0.0000   0.2277
  -9.300  -0.9586   0.02027   0.01452  -0.0123  1.0000  0.0170  -6.3620   0.0000   0.0000   0.0000   0.2284
  -9.200  -0.9515   0.02003   0.01426  -0.0117  1.0000  0.0176  -6.2473   0.0000   0.0000   0.0000   0.2291
  -9.100  -0.9443   0.01980   0.01399  -0.0110  1.0000  0.0181  -6.1337   0.0000   0.0000   0.0000   0.2298
  -9.000  -0.9371   0.01956   0.01369  -0.0104  1.0000  0.0185  -6.0179   0.0000   0.0000   0.0000   0.2305
  -8.900  -0.9295   0.01936   0.01346  -0.0098  1.0000  0.0189  -5.9023   0.0000   0.0000   0.0000   0.2312
  -8.800  -0.9218   0.01918   0.01325  -0.0092  1.0000  0.0193  -5.7848   0.0000   0.0000   0.0000   0.2318
  -8.700  -0.9138   0.01904   0.01308  -0.0086  1.0000  0.0195  -5.6648   0.0000   0.0000   0.0000   0.2325
  -8.600  -0.9054   0.01893   0.01296  -0.0081  1.0000  0.0197  -5.5412   0.0000   0.0000   0.0000   0.2330
  -8.500  -0.9067   0.01760   0.01147  -0.0061  1.0000  0.0209  -5.5477   0.0000   0.0000   0.0000   0.2354
  -8.400  -0.9036   0.01688   0.01068  -0.0047  1.0000  0.0220  -5.4930   0.0000   0.0000   0.0000   0.2370
  -8.300  -0.8983   0.01643   0.01019  -0.0037  1.0000  0.0230  -5.4080   0.0000   0.0000   0.0000   0.2382
  -8.200  -0.8919   0.01611   0.00984  -0.0029  1.0000  0.0239  -5.3077   0.0000   0.0000   0.0000   0.2392
  -8.100  -0.8848   0.01584   0.00956  -0.0022  1.0000  0.0247  -5.2001   0.0000   0.0000   0.0000   0.2401
  -8.000  -0.8774   0.01562   0.00932  -0.0015  1.0000  0.0255  -5.0892   0.0000   0.0000   0.0000   0.2409
  -7.900  -0.8696   0.01543   0.00911  -0.0009  1.0000  0.0263  -4.9742   0.0000   0.0000   0.0000   0.2417
  -7.800  -0.8617   0.01525   0.00893  -0.0003  1.0000  0.0271  -4.8586   0.0000   0.0000   0.0000   0.2425
  -7.700  -0.8537   0.01508   0.00874   0.0003  1.0000  0.0279  -4.7442   0.0000   0.0000   0.0000   0.2432
  -7.600  -0.8457   0.01491   0.00855   0.0008  1.0000  0.0288  -4.6314   0.0000   0.0000   0.0000   0.2440
  -7.500  -0.8378   0.01474   0.00835   0.0014  1.0000  0.0295  -4.5204   0.0000   0.0000   0.0000   0.2449
  -7.400  -0.8298   0.01456   0.00815   0.0020  1.0000  0.0302  -4.4109   0.0000   0.0000   0.0000   0.2457
  -7.300  -0.8218   0.01439   0.00795   0.0026  1.0000  0.0308  -4.3026   0.0000   0.0000   0.0000   0.2465
  -7.200  -0.8137   0.01422   0.00776   0.0032  1.0000  0.0313  -4.1951   0.0000   0.0000   0.0000   0.2474
  -7.100  -0.8056   0.01407   0.00758   0.0038  1.0000  0.0316  -4.0877   0.0000   0.0000   0.0000   0.2483
  -7.000  -0.7988   0.01376   0.00723   0.0046  1.0000  0.0326  -4.0094   0.0000   0.0000   0.0000   0.2494
  -6.900  -0.7940   0.01322   0.00663   0.0059  1.0000  0.0365  -3.9621   0.0000   0.0000   0.0000   0.2511
  -6.800  -0.7870   0.01293   0.00637   0.0067  1.0000  0.0405  -3.8857   0.0000   0.0000   0.0000   0.2523
  -6.700  -0.7794   0.01272   0.00619   0.0073  1.0000  0.0444  -3.8003   0.0000   0.0000   0.0000   0.2533
  -6.600  -0.7709   0.01260   0.00606   0.0078  1.0000  0.0475  -3.7088   0.0000   0.0000   0.0000   0.2541
  -6.500  -0.7640   0.01231   0.00575   0.0086  1.0000  0.0548  -3.6309   0.0000   0.0000   0.0000   0.2554
  -6.400  -0.7565   0.01209   0.00560   0.0093  1.0000  0.0614  -3.5462   0.0000   0.0000   0.0000   0.2564
  -6.300  -0.7481   0.01197   0.00548   0.0098  1.0000  0.0655  -3.4560   0.0000   0.0000   0.0000   0.2574
  -6.200  -0.7393   0.01189   0.00537   0.0103  1.0000  0.0680  -3.3646   0.0000   0.0000   0.0000   0.2582
  -6.100  -0.7320   0.01166   0.00517   0.0110  1.0000  0.0752  -3.2837   0.0000   0.0000   0.0000   0.2594
  -6.000  -0.7240   0.01150   0.00505   0.0115  1.0000  0.0803  -3.1976   0.0000   0.0000   0.0000   0.2605
  -5.900  -0.7157   0.01139   0.00494   0.0121  1.0000  0.0845  -3.1102   0.0000   0.0000   0.0000   0.2615
  -5.800  -0.7071   0.01131   0.00484   0.0126  1.0000  0.0875  -3.0220   0.0000   0.0000   0.0000   0.2625
  -5.700  -0.6991   0.01116   0.00471   0.0132  1.0000  0.0928  -2.9387   0.0000   0.0000   0.0000   0.2636
  -5.600  -0.6913   0.01101   0.00460   0.0138  1.0000  0.0991  -2.8561   0.0000   0.0000   0.0000   0.2648
  -5.500  -0.6831   0.01089   0.00450   0.0143  1.0000  0.1044  -2.7727   0.0000   0.0000   0.0000   0.2659
  -5.400  -0.6747   0.01080   0.00441   0.0149  1.0000  0.1087  -2.6888   0.0000   0.0000   0.0000   0.2670
  -5.300  -0.6667   0.01067   0.00430   0.0154  1.0000  0.1150  -2.6080   0.0000   0.0000   0.0000   0.2683
  -5.200  -0.6588   0.01054   0.00420   0.0160  1.0000  0.1222  -2.5283   0.0000   0.0000   0.0000   0.2695
  -5.100  -0.6507   0.01044   0.00412   0.0166  1.0000  0.1285  -2.4481   0.0000   0.0000   0.0000   0.2707
  -5.000  -0.6425   0.01035   0.00404   0.0171  1.0000  0.1344  -2.3686   0.0000   0.0000   0.0000   0.2720
  -4.900  -0.6347   0.01022   0.00396   0.0177  1.0000  0.1430  -2.2920   0.0000   0.0000   0.0000   0.2733
  -4.800  -0.6267   0.01013   0.00389   0.0183  1.0000  0.1508  -2.2166   0.0000   0.0000   0.0000   0.2747
  -4.700  -0.6187   0.01003   0.00382   0.0189  1.0000  0.1591  -2.1532   0.0000   0.0000   0.0000   0.2761
  -4.600  -0.6110   0.00991   0.00376   0.0195  1.0000  0.1687  -2.0919   0.0000   0.0000   0.0000   0.2775
  -4.500  -0.6029   0.00985   0.00370   0.0200  1.0000  0.1764  -2.0402   0.0000   0.0000   0.0000   0.2789
  -4.400  -0.5953   0.00973   0.00361   0.0206  1.0000  0.1861  -1.9910   0.0000   0.0000   0.0000   0.2805
  -4.300  -0.5804   0.00963   0.00355   0.0198  0.9989  0.1987  -1.9217   0.0000   0.0000   0.0000   0.2799
  -4.200  -0.5657   0.00949   0.00348   0.0189  0.9976  0.2145  -1.8539   0.0000   0.0000   0.0000   0.2793
  -4.100  -0.5510   0.00935   0.00343   0.0180  0.9961  0.2314  -1.7864   0.0000   0.0000   0.0000   0.2786
  -4.000  -0.5362   0.00923   0.00338   0.0171  0.9946  0.2496  -1.7194   0.0000   0.0000   0.0000   0.2779
  -3.900  -0.5212   0.00911   0.00333   0.0162  0.9932  0.2683  -1.6527   0.0000   0.0000   0.0000   0.2771
  -3.800  -0.5061   0.00897   0.00328   0.0152  0.9918  0.2864  -1.5865   0.0000   0.0000   0.0000   0.2762
  -3.700  -0.4905   0.00887   0.00324   0.0142  0.9906  0.3016  -1.5200   0.0000   0.0000   0.0000   0.2751
  -3.500  -0.4622   0.00864   0.00312   0.0128  0.9875  0.3312  -1.3960   0.0000   0.0000   0.0000   0.2739
  -3.400  -0.4489   0.00852   0.00305   0.0123  0.9854  0.3454  -1.3369   0.0000   0.0000   0.0000   0.2736
  -3.300  -0.4349   0.00842   0.00299   0.0116  0.9833  0.3606  -1.2771   0.0000   0.0000   0.0000   0.2731
  -3.200  -0.4208   0.00829   0.00293   0.0109  0.9811  0.3762  -1.2176   0.0000   0.0000   0.0000   0.2724
  -3.100  -0.4062   0.00818   0.00288   0.0102  0.9791  0.3918  -1.1575   0.0000   0.0000   0.0000   0.2715
  -3.000  -0.3912   0.00807   0.00280   0.0093  0.9771  0.4097  -1.0957   0.0000   0.0000   0.0000   0.2703
  -2.900  -0.3761   0.00794   0.00276   0.0084  0.9754  0.4294  -1.0473   0.0000   0.0000   0.0000   0.2689
  -2.800  -0.3608   0.00782   0.00271   0.0075  0.9738  0.4491  -1.0141   0.0000   0.0000   0.0000   0.2673
  -2.700  -0.3451   0.00770   0.00267   0.0065  0.9723  0.4676  -0.9807   0.0000   0.0000   0.0000   0.2654
  -2.600  -0.3291   0.00759   0.00263   0.0054  0.9711  0.4846  -0.9472   0.0000   0.0000   0.0000   0.2631
  -2.400  -0.3028   0.00736   0.00253   0.0046  0.9662  0.5198  -0.8879   0.0000   0.0000   0.0000   0.2619
  -2.300  -0.2916   0.00724   0.00247   0.0047  0.9625  0.5367  -0.8610   0.0000   0.0000   0.0000   0.2627
  -2.200  -0.2785   0.00713   0.00242   0.0043  0.9594  0.5536  -0.8318   0.0000   0.0000   0.0000   0.2621
  -2.100  -0.2643   0.00703   0.00237   0.0037  0.9568  0.5701  -0.8017   0.0000   0.0000   0.0000   0.2607
  -2.000  -0.2498   0.00691   0.00233   0.0030  0.9545  0.5862  -0.7712   0.0000   0.0000   0.0000   0.2588
  -1.900  -0.2346   0.00680   0.00228   0.0022  0.9524  0.6030  -0.7404   0.0000   0.0000   0.0000   0.2562
  -1.700  -0.2041   0.00659   0.00218   0.0006  0.9485  0.6361  -0.6810   0.0000   0.0000   0.0000   0.2496
  -1.600  -0.1907   0.00650   0.00214   0.0002  0.9454  0.6499  -0.6577   0.0000   0.0000   0.0000   0.2479
  -1.500  -0.1809   0.00642   0.00210   0.0006  0.9396  0.6635  -0.6380   0.0000   0.0000   0.0000   0.2501
  -1.400  -0.1687   0.00632   0.00206   0.0005  0.9350  0.6774  -0.6161   0.0000   0.0000   0.0000   0.2498
  -1.300  -0.1545   0.00624   0.00202  -0.0000  0.9310  0.6916  -0.5924   0.0000   0.0000   0.0000   0.2466
  -1.200  -0.1398   0.00615   0.00198  -0.0007  0.9274  0.7054  -0.5684   0.0000   0.0000   0.0000   0.2420
  -1.100  -0.1251   0.00607   0.00194  -0.0013  0.9236  0.7177  -0.5458   0.0000   0.0000   0.0000   0.2363
  -1.000  -0.1148   0.00601   0.00192  -0.0010  0.9164  0.7299  -0.5293   0.0000   0.0000   0.0000   0.2383
  -0.900  -0.1022   0.00595   0.00189  -0.0011  0.9100  0.7417  -0.5110   0.0000   0.0000   0.0000   0.2357
  -0.800  -0.0888   0.00589   0.00185  -0.0015  0.9041  0.7541  -0.4922   0.0000   0.0000   0.0000   0.2303
  -0.700  -0.0767   0.00584   0.00183  -0.0015  0.8975  0.7648  -0.4744   0.0000   0.0000   0.0000   0.2269
  -0.600  -0.0657   0.00580   0.00181  -0.0013  0.8891  0.7760  -0.4585   0.0000   0.0000   0.0000   0.2270
  -0.500  -0.0538   0.00577   0.00178  -0.0013  0.8812  0.7864  -0.4434   0.0000   0.0000   0.0000   0.2225
  -0.400  -0.0427   0.00574   0.00177  -0.0011  0.8734  0.7970  -0.4290   0.0000   0.0000   0.0000   0.2205
  -0.200  -0.0209   0.00571   0.00175  -0.0006  0.8555  0.8172  -0.4006   0.0000   0.0000   0.0000   0.2166
  -0.100  -0.0107   0.00570   0.00175  -0.0003  0.8462  0.8276  -0.3870   0.0000   0.0000   0.0000   0.2210
   0.000  -0.0000   0.00570   0.00175   0.0000  0.8366  0.8367  -0.3747   0.0000   0.0000   0.0000   0.6098
   0.100   0.0107   0.00570   0.00175   0.0003  0.8275  0.8463  -0.3869   0.0000   0.0000   0.0000   0.2202
   0.200   0.0209   0.00571   0.00175   0.0006  0.8170  0.8555  -0.4004   0.0000   0.0000   0.0000   0.2163
   0.400   0.0427   0.00574   0.00177   0.0011  0.7968  0.8734  -0.4287   0.0000   0.0000   0.0000   0.2204
   0.500   0.0538   0.00577   0.00178   0.0013  0.7862  0.8813  -0.4432   0.0000   0.0000   0.0000   0.2225
   0.600   0.0658   0.00580   0.00181   0.0013  0.7760  0.8892  -0.4583   0.0000   0.0000   0.0000   0.2269
   0.700   0.0767   0.00584   0.00183   0.0015  0.7649  0.8975  -0.4748   0.0000   0.0000   0.0000   0.2269
   0.800   0.0888   0.00589   0.00185   0.0015  0.7542  0.9042  -0.4925   0.0000   0.0000   0.0000   0.2304
   0.900   0.1023   0.00595   0.00189   0.0011  0.7419  0.9100  -0.5114   0.0000   0.0000   0.0000   0.2358
   1.000   0.1149   0.00601   0.00192   0.0010  0.7302  0.9164  -0.5297   0.0000   0.0000   0.0000   0.2384
   1.100   0.1251   0.00607   0.00194   0.0013  0.7180  0.9237  -0.5462   0.0000   0.0000   0.0000   0.2364
   1.200   0.1399   0.00615   0.00198   0.0007  0.7057  0.9274  -0.5681   0.0000   0.0000   0.0000   0.2421
   1.300   0.1546   0.00624   0.00202   0.0000  0.6919  0.9311  -0.5921   0.0000   0.0000   0.0000   0.2467
   1.400   0.1687   0.00632   0.00206  -0.0005  0.6778  0.9350  -0.6157   0.0000   0.0000   0.0000   0.2499
   1.500   0.1809   0.00642   0.00210  -0.0006  0.6639  0.9396  -0.6377   0.0000   0.0000   0.0000   0.2502
   1.600   0.1908   0.00650   0.00214  -0.0002  0.6502  0.9454  -0.6574   0.0000   0.0000   0.0000   0.2479
   1.700   0.2042   0.00659   0.00218  -0.0006  0.6361  0.9486  -0.6807   0.0000   0.0000   0.0000   0.2497
   1.900   0.2347   0.00680   0.00228  -0.0022  0.6025  0.9524  -0.7399   0.0000   0.0000   0.0000   0.2562
   2.000   0.2498   0.00691   0.00233  -0.0030  0.5858  0.9545  -0.7708   0.0000   0.0000   0.0000   0.2588
   2.100   0.2644   0.00703   0.00237  -0.0037  0.5700  0.9568  -0.8013   0.0000   0.0000   0.0000   0.2608
   2.200   0.2785   0.00713   0.00242  -0.0043  0.5537  0.9594  -0.8314   0.0000   0.0000   0.0000   0.2622
   2.300   0.2917   0.00724   0.00247  -0.0047  0.5371  0.9625  -0.8606   0.0000   0.0000   0.0000   0.2628
   2.400   0.3029   0.00736   0.00253  -0.0046  0.5204  0.9663  -0.8875   0.0000   0.0000   0.0000   0.2620
   2.500   0.3130   0.00749   0.00259  -0.0044  0.5035  0.9700  -0.9133   0.0000   0.0000   0.0000   0.2606
   2.600   0.3293   0.00759   0.00263  -0.0055  0.4850  0.9711  -0.9469   0.0000   0.0000   0.0000   0.2633
   2.700   0.3453   0.00770   0.00267  -0.0065  0.4679  0.9723  -0.9805   0.0000   0.0000   0.0000   0.2655
   2.800   0.3609   0.00781   0.00271  -0.0075  0.4494  0.9738  -1.0138   0.0000   0.0000   0.0000   0.2674
   2.900   0.3762   0.00794   0.00276  -0.0084  0.4297  0.9754  -1.0469   0.0000   0.0000   0.0000   0.2690
   3.000   0.3912   0.00807   0.00280  -0.0093  0.4098  0.9771  -1.0953   0.0000   0.0000   0.0000   0.2703
   3.100   0.4061   0.00818   0.00287  -0.0101  0.3918  0.9790  -1.1568   0.0000   0.0000   0.0000   0.2714
   3.200   0.4206   0.00829   0.00293  -0.0109  0.3763  0.9811  -1.2167   0.0000   0.0000   0.0000   0.2724
   3.300   0.4347   0.00841   0.00299  -0.0116  0.3607  0.9832  -1.2761   0.0000   0.0000   0.0000   0.2730
   3.400   0.4486   0.00852   0.00305  -0.0122  0.3455  0.9853  -1.3359   0.0000   0.0000   0.0000   0.2735
   3.500   0.4620   0.00864   0.00312  -0.0127  0.3314  0.9874  -1.3950   0.0000   0.0000   0.0000   0.2738
   3.700   0.4904   0.00887   0.00324  -0.0141  0.3018  0.9905  -1.5193   0.0000   0.0000   0.0000   0.2750
   3.800   0.5061   0.00897   0.00328  -0.0152  0.2865  0.9918  -1.5861   0.0000   0.0000   0.0000   0.2762
   3.900   0.5213   0.00911   0.00333  -0.0162  0.2684  0.9932  -1.6525   0.0000   0.0000   0.0000   0.2771
   4.000   0.5365   0.00923   0.00337  -0.0171  0.2497  0.9947  -1.7196   0.0000   0.0000   0.0000   0.2780
   4.100   0.5514   0.00935   0.00343  -0.0181  0.2315  0.9962  -1.7870   0.0000   0.0000   0.0000   0.2788
   4.200   0.5662   0.00948   0.00348  -0.0190  0.2148  0.9977  -1.8545   0.0000   0.0000   0.0000   0.2794
   4.300   0.5809   0.00963   0.00355  -0.0199  0.1989  0.9990  -1.9225   0.0000   0.0000   0.0000   0.2800
   4.400   0.5952   0.00973   0.00361  -0.0206  0.1865  1.0000  -1.9903   0.0000   0.0000   0.0000   0.2804
   4.500   0.6028   0.00985   0.00370  -0.0200  0.1765  1.0000  -2.0394   0.0000   0.0000   0.0000   0.2789
   4.600   0.6109   0.00991   0.00376  -0.0195  0.1689  1.0000  -2.0911   0.0000   0.0000   0.0000   0.2775
   4.700   0.6187   0.01003   0.00382  -0.0189  0.1593  1.0000  -2.1507   0.0000   0.0000   0.0000   0.2760
   4.800   0.6266   0.01012   0.00389  -0.0183  0.1510  1.0000  -2.2140   0.0000   0.0000   0.0000   0.2747
   4.900   0.6347   0.01022   0.00396  -0.0177  0.1431  1.0000  -2.2900   0.0000   0.0000   0.0000   0.2733
   5.000   0.6424   0.01035   0.00404  -0.0171  0.1346  1.0000  -2.3667   0.0000   0.0000   0.0000   0.2720
   5.100   0.6506   0.01044   0.00412  -0.0166  0.1286  1.0000  -2.4460   0.0000   0.0000   0.0000   0.2707
   5.200   0.6588   0.01053   0.00420  -0.0160  0.1223  1.0000  -2.5262   0.0000   0.0000   0.0000   0.2695
   5.300   0.6666   0.01067   0.00429  -0.0154  0.1152  1.0000  -2.6059   0.0000   0.0000   0.0000   0.2682
   5.400   0.6747   0.01080   0.00440  -0.0148  0.1087  1.0000  -2.6865   0.0000   0.0000   0.0000   0.2670
   5.500   0.6831   0.01088   0.00450  -0.0143  0.1045  1.0000  -2.7704   0.0000   0.0000   0.0000   0.2659
   5.600   0.6912   0.01100   0.00459  -0.0138  0.0991  1.0000  -2.8538   0.0000   0.0000   0.0000   0.2648
   5.700   0.6991   0.01116   0.00471  -0.0132  0.0929  1.0000  -2.9364   0.0000   0.0000   0.0000   0.2636
   5.800   0.7071   0.01130   0.00484  -0.0126  0.0875  1.0000  -3.0197   0.0000   0.0000   0.0000   0.2625
   5.900   0.7157   0.01139   0.00494  -0.0121  0.0845  1.0000  -3.1078   0.0000   0.0000   0.0000   0.2615
   6.000   0.7240   0.01150   0.00505  -0.0115  0.0803  1.0000  -3.1951   0.0000   0.0000   0.0000   0.2605
   6.100   0.7319   0.01166   0.00518  -0.0110  0.0751  1.0000  -3.2811   0.0000   0.0000   0.0000   0.2594
   6.200   0.7393   0.01190   0.00538  -0.0103  0.0679  1.0000  -3.3616   0.0000   0.0000   0.0000   0.2582
   6.300   0.7480   0.01197   0.00548  -0.0098  0.0655  1.0000  -3.4534   0.0000   0.0000   0.0000   0.2573
   6.400   0.7564   0.01209   0.00560  -0.0093  0.0614  1.0000  -3.5434   0.0000   0.0000   0.0000   0.2564
   6.500   0.7639   0.01231   0.00575  -0.0086  0.0551  1.0000  -3.6283   0.0000   0.0000   0.0000   0.2554
   6.600   0.7708   0.01261   0.00607  -0.0078  0.0476  1.0000  -3.7052   0.0000   0.0000   0.0000   0.2541
   6.700   0.7793   0.01272   0.00620  -0.0073  0.0448  1.0000  -3.7975   0.0000   0.0000   0.0000   0.2533
   6.800   0.7871   0.01292   0.00638  -0.0067  0.0410  1.0000  -3.8838   0.0000   0.0000   0.0000   0.2523
   6.900   0.7942   0.01320   0.00661  -0.0059  0.0372  1.0000  -3.9628   0.0000   0.0000   0.0000   0.2512
   7.000   0.7994   0.01369   0.00715  -0.0048  0.0331  1.0000  -4.0150   0.0000   0.0000   0.0000   0.2496
   7.100   0.8054   0.01409   0.00760  -0.0038  0.0317  1.0000  -4.0849   0.0000   0.0000   0.0000   0.2482
   7.200   0.8136   0.01424   0.00778  -0.0032  0.0313  1.0000  -4.1927   0.0000   0.0000   0.0000   0.2474
   7.300   0.8216   0.01440   0.00797  -0.0026  0.0309  1.0000  -4.3006   0.0000   0.0000   0.0000   0.2465
   7.400   0.8297   0.01457   0.00816  -0.0020  0.0303  1.0000  -4.4092   0.0000   0.0000   0.0000   0.2457
   7.500   0.8377   0.01474   0.00836  -0.0014  0.0296  1.0000  -4.5190   0.0000   0.0000   0.0000   0.2448
   7.600   0.8457   0.01492   0.00855  -0.0008  0.0289  1.0000  -4.6301   0.0000   0.0000   0.0000   0.2440
   7.700   0.8536   0.01509   0.00875  -0.0002  0.0281  1.0000  -4.7430   0.0000   0.0000   0.0000   0.2432
   7.800   0.8616   0.01526   0.00893   0.0003  0.0272  1.0000  -4.8574   0.0000   0.0000   0.0000   0.2425
   7.900   0.8695   0.01543   0.00912   0.0009  0.0264  1.0000  -4.9730   0.0000   0.0000   0.0000   0.2417
   8.000   0.8773   0.01562   0.00932   0.0015  0.0256  1.0000  -5.0881   0.0000   0.0000   0.0000   0.2409
   8.100   0.8848   0.01584   0.00956   0.0022  0.0248  1.0000  -5.1997   0.0000   0.0000   0.0000   0.2401
   8.200   0.8920   0.01609   0.00983   0.0029  0.0241  1.0000  -5.3084   0.0000   0.0000   0.0000   0.2392
   8.300   0.8986   0.01641   0.01016   0.0036  0.0232  1.0000  -5.4108   0.0000   0.0000   0.0000   0.2383
   8.400   0.9042   0.01683   0.01062   0.0046  0.0222  1.0000  -5.4997   0.0000   0.0000   0.0000   0.2371
   8.500   0.9077   0.01748   0.01134   0.0059  0.0211  1.0000  -5.5612   0.0000   0.0000   0.0000   0.2356
   8.600   0.9070   0.01872   0.01273   0.0079  0.0198  1.0000  -5.5627   0.0000   0.0000   0.0000   0.2333
   8.700   0.9136   0.01906   0.01311   0.0087  0.0195  1.0000  -5.6629   0.0000   0.0000   0.0000   0.2324
   8.800   0.9217   0.01919   0.01327   0.0092  0.0193  1.0000  -5.7839   0.0000   0.0000   0.0000   0.2318
   8.900   0.9296   0.01936   0.01346   0.0098  0.0190  1.0000  -5.9025   0.0000   0.0000   0.0000   0.2312
   9.000   0.9372   0.01956   0.01368   0.0104  0.0186  1.0000  -6.0191   0.0000   0.0000   0.0000   0.2305
   9.100   0.9445   0.01978   0.01398   0.0110  0.0181  1.0000  -6.1357   0.0000   0.0000   0.0000   0.2298
   9.200   0.9517   0.02001   0.01424   0.0117  0.0176  1.0000  -6.2500   0.0000   0.0000   0.0000   0.2291
   9.300   0.9588   0.02024   0.01450   0.0123  0.0170  1.0000  -6.3651   0.0000   0.0000   0.0000   0.2284
   9.400   0.9659   0.02046   0.01474   0.0129  0.0165  1.0000  -6.4830   0.0000   0.0000   0.0000   0.2277
   9.500   0.9731   0.02066   0.01495   0.0135  0.0159  1.0000  -6.6048   0.0000   0.0000   0.0000   0.2271
   9.600   0.9803   0.02084   0.01514   0.0141  0.0153  1.0000  -6.7303   0.0000   0.0000   0.0000   0.2265
   9.700   0.9873   0.02103   0.01534   0.0147  0.0148  1.0000  -6.8577   0.0000   0.0000   0.0000   0.2258
   9.800   0.9939   0.02126   0.01557   0.0154  0.0143  1.0000  -6.9822   0.0000   0.0000   0.0000   0.2251
   9.900   0.9994   0.02159   0.01592   0.0162  0.0138  1.0000  -7.0928   0.0000   0.0000   0.0000   0.2243
  10.000   1.0029   0.02216   0.01653   0.0173  0.0133  1.0000  -7.1714   0.0000   0.0000   0.0000   0.2231
  10.100   1.0030   0.02312   0.01757   0.0188  0.0127  1.0000  -7.1981   0.0000   0.0000   0.0000   0.2215
  10.200   0.9994   0.02459   0.01920   0.0208  0.0122  1.0000  -7.1657   0.0000   0.0000   0.0000   0.2193
  10.300   0.9932   0.02648   0.02128   0.0231  0.0119  1.0000  -7.0923   0.0000   0.0000   0.0000   0.2169
  10.400   0.9990   0.02673   0.02157   0.0238  0.0118  1.0000  -7.2030   0.0000   0.0000   0.0000   0.2161
  10.500   1.0043   0.02703   0.02191   0.0246  0.0117  1.0000  -7.3082   0.0000   0.0000   0.0000   0.2153
  10.600   1.0091   0.02737   0.02230   0.0255  0.0116  1.0000  -7.4080   0.0000   0.0000   0.0000   0.2145
  10.700   1.0134   0.02776   0.02274   0.0264  0.0115  1.0000  -7.5023   0.0000   0.0000   0.0000   0.2136
  10.800   1.0172   0.02818   0.02322   0.0273  0.0114  1.0000  -7.5911   0.0000   0.0000   0.0000   0.2126
  10.900   1.0204   0.02864   0.02373   0.0284  0.0113  1.0000  -7.6744   0.0000   0.0000   0.0000   0.2115
  11.000   1.0231   0.02914   0.02429   0.0294  0.0112  1.0000  -7.7521   0.0000   0.0000   0.0000   0.2104
  11.100   1.0244   0.02964   0.02485   0.0307  0.0111  1.0000  -7.8199   0.0000   0.0000   0.0000   0.2091
  11.200   1.0247   0.03015   0.02541   0.0322  0.0110  1.0000  -7.8797   0.0000   0.0000   0.0000   0.2076
  11.300   1.0244   0.03068   0.02600   0.0336  0.0109  1.0000  -7.9347   0.0000   0.0000   0.0000   0.2060
  11.400   1.0239   0.03124   0.02662   0.0351  0.0108  1.0000  -7.9869   0.0000   0.0000   0.0000   0.2044
  11.500   1.0231   0.03184   0.02728   0.0364  0.0107  1.0000  -8.0359   0.0000   0.0000   0.0000   0.2029
  11.600   1.0222   0.03248   0.02799   0.0377  0.0106  1.0000  -8.0824   0.0000   0.0000   0.0000   0.2015
  11.700   1.0209   0.03316   0.02873   0.0389  0.0105  1.0000  -8.1255   0.0000   0.0000   0.0000   0.2001
  11.800   1.0194   0.03388   0.02952   0.0401  0.0104  1.0000  -8.1653   0.0000   0.0000   0.0000   0.1988
  11.900   1.0177   0.03465   0.03035   0.0411  0.0103  1.0000  -8.2016   0.0000   0.0000   0.0000   0.1976
  12.000   1.0155   0.03547   0.03124   0.0421  0.0102  1.0000  -8.2341   0.0000   0.0000   0.0000   0.1964
  12.100   1.0131   0.03634   0.03218   0.0429  0.0101  1.0000  -8.2629   0.0000   0.0000   0.0000   0.1954
  12.200   1.0104   0.03728   0.03319   0.0436  0.0101  1.0000  -8.2878   0.0000   0.0000   0.0000   0.1944
  12.300   1.0073   0.03829   0.03426   0.0441  0.0100  1.0000  -8.3084   0.0000   0.0000   0.0000   0.1935
  12.400   1.0039   0.03937   0.03542   0.0445  0.0099  1.0000  -8.3250   0.0000   0.0000   0.0000   0.1928
  12.500   1.0003   0.04054   0.03666   0.0448  0.0099  1.0000  -8.3373   0.0000   0.0000   0.0000   0.1922
  12.600   0.9963   0.04181   0.03799   0.0449  0.0098  1.0000  -8.3448   0.0000   0.0000   0.0000   0.1918
  12.700   0.9920   0.04318   0.03943   0.0448  0.0097  1.0000  -8.3470   0.0000   0.0000   0.0000   0.1915
  12.800   0.9874   0.04467   0.04099   0.0445  0.0097  1.0000  -8.3439   0.0000   0.0000   0.0000   0.1914
  12.900   0.9824   0.04629   0.04268   0.0440  0.0096  1.0000  -8.3350   0.0000   0.0000   0.0000   0.1915
  13.000   0.9771   0.04806   0.04452   0.0433  0.0096  1.0000  -8.3195   0.0000   0.0000   0.0000   0.1918
  13.100   0.9714   0.04998   0.04651   0.0424  0.0096  1.0000  -8.2962   0.0000   0.0000   0.0000   0.1922
  13.200   0.9651   0.05207   0.04868   0.0412  0.0096  1.0000  -8.2647   0.0000   0.0000   0.0000   0.1929
  13.300   0.9585   0.05436   0.05104   0.0399  0.0096  1.0000  -8.2242   0.0000   0.0000   0.0000   0.1939
  13.400   0.9512   0.05687   0.05363   0.0382  0.0096  1.0000  -8.1729   0.0000   0.0000   0.0000   0.1950
  13.500   0.9433   0.05962   0.05644   0.0364  0.0096  1.0000  -8.1100   0.0000   0.0000   0.0000   0.1965
  13.600   0.9347   0.06260   0.05950   0.0344  0.0096  1.0000  -8.0334   0.0000   0.0000   0.0000   0.1981
  13.700   0.9251   0.06585   0.06283   0.0321  0.0097  1.0000  -7.9414   0.0000   0.0000   0.0000   0.2000
  13.800   0.9147   0.06938   0.06643   0.0297  0.0097  1.0000  -7.8333   0.0000   0.0000   0.0000   0.2021
  13.900   0.9032   0.07326   0.07037   0.0270  0.0098  1.0000  -7.7050   0.0000   0.0000   0.0000   0.2044
  14.000   0.8905   0.07746   0.07465   0.0242  0.0099  1.0000  -7.5556   0.0000   0.0000   0.0000   0.2070
  14.100   0.8763   0.08209   0.07935   0.0212  0.0100  1.0000  -7.3781   0.0000   0.0000   0.0000   0.2099
  14.200   0.8600   0.08722   0.08454   0.0180  0.0102  1.0000  -7.1633   0.0000   0.0000   0.0000   0.2131
  14.300   0.8409   0.09306   0.09045   0.0145  0.0104  1.0000  -6.8971   0.0000   0.0000   0.0000   0.2167
  14.400   0.8148   0.10066   0.09812   0.0102  0.0108  1.0000  -6.5057   0.0000   0.0000   0.0000   0.2215
  15.000   0.6872   0.14461   0.14210  -0.0094  0.0122  1.0000  -3.9437   0.0000   0.0000   0.0000   0.2490


