xflr5 v6.61

 Calculated polar for: SD8020-010-88

 1 1 Reynolds number fixed          Mach number fixed         

 xtrf =   1.000 (top)        1.000 (bottom)
 Mach =   0.000     Re =     0.250 e 6     Ncrit =   9.000

  alpha     CL        CD       CDp       Cm    Top Xtr Bot Xtr   Cpmin    Chinge    XCp    
 ------- -------- --------- --------- -------- ------- ------- -------- --------- ---------
 -10.000  -0.9520   0.03216   0.02652  -0.0248  1.0000  0.0229  -6.1288   0.0000   0.0000   0.0000   0.2146
  -9.900  -0.9490   0.03143   0.02573  -0.0238  1.0000  0.0233  -6.0716   0.0000   0.0000   0.0000   0.2156
  -9.800  -0.9454   0.03075   0.02498  -0.0229  1.0000  0.0237  -6.0097   0.0000   0.0000   0.0000   0.2166
  -9.700  -0.9415   0.03010   0.02427  -0.0219  1.0000  0.0242  -5.9449   0.0000   0.0000   0.0000   0.2176
  -9.600  -0.9372   0.02947   0.02357  -0.0210  1.0000  0.0247  -5.8784   0.0000   0.0000   0.0000   0.2186
  -9.500  -0.9327   0.02884   0.02287  -0.0201  1.0000  0.0252  -5.8108   0.0000   0.0000   0.0000   0.2196
  -9.300  -0.9229   0.02761   0.02143  -0.0184  1.0000  0.0264  -5.6704   0.0000   0.0000   0.0000   0.2214
  -9.200  -0.9176   0.02701   0.02075  -0.0175  1.0000  0.0271  -5.6000   0.0000   0.0000   0.0000   0.2224
  -9.100  -0.9120   0.02642   0.02008  -0.0167  1.0000  0.0278  -5.5273   0.0000   0.0000   0.0000   0.2233
  -9.000  -0.9061   0.02586   0.01945  -0.0159  1.0000  0.0285  -5.4518   0.0000   0.0000   0.0000   0.2242
  -8.900  -0.9000   0.02533   0.01885  -0.0151  1.0000  0.0292  -5.3732   0.0000   0.0000   0.0000   0.2250
  -8.800  -0.8936   0.02485   0.01830  -0.0143  1.0000  0.0298  -5.2910   0.0000   0.0000   0.0000   0.2259
  -8.700  -0.8868   0.02448   0.01787  -0.0136  1.0000  0.0305  -5.2003   0.0000   0.0000   0.0000   0.2266
  -8.600  -0.8791   0.02437   0.01772  -0.0130  1.0000  0.0312  -5.0911   0.0000   0.0000   0.0000   0.2273
  -8.500  -0.8707   0.02448   0.01779  -0.0125  1.0000  0.0318  -4.9696   0.0000   0.0000   0.0000   0.2279
  -8.400  -0.8687   0.02271   0.01586  -0.0112  1.0000  0.0333  -4.9617   0.0000   0.0000   0.0000   0.2293
  -8.300  -0.8648   0.02164   0.01472  -0.0102  1.0000  0.0350  -4.9124   0.0000   0.0000   0.0000   0.2306
  -8.200  -0.8590   0.02106   0.01413  -0.0093  1.0000  0.0363  -4.8310   0.0000   0.0000   0.0000   0.2316
  -8.100  -0.8524   0.02066   0.01370  -0.0086  1.0000  0.0374  -4.7391   0.0000   0.0000   0.0000   0.2325
  -8.000  -0.8456   0.02028   0.01330  -0.0079  1.0000  0.0384  -4.6464   0.0000   0.0000   0.0000   0.2334
  -7.900  -0.8386   0.01991   0.01290  -0.0071  1.0000  0.0395  -4.5538   0.0000   0.0000   0.0000   0.2343
  -7.800  -0.8315   0.01956   0.01251  -0.0064  1.0000  0.0405  -4.4616   0.0000   0.0000   0.0000   0.2351
  -7.700  -0.8244   0.01920   0.01212  -0.0057  1.0000  0.0416  -4.3702   0.0000   0.0000   0.0000   0.2361
  -7.600  -0.8172   0.01885   0.01173  -0.0050  1.0000  0.0429  -4.2795   0.0000   0.0000   0.0000   0.2370
  -7.500  -0.8100   0.01852   0.01136  -0.0042  1.0000  0.0441  -4.1890   0.0000   0.0000   0.0000   0.2379
  -7.400  -0.8024   0.01823   0.01103  -0.0035  1.0000  0.0455  -4.0963   0.0000   0.0000   0.0000   0.2388
  -7.300  -0.7943   0.01805   0.01080  -0.0030  1.0000  0.0470  -4.0120   0.0000   0.0000   0.0000   0.2396
  -7.200  -0.7856   0.01795   0.01067  -0.0025  1.0000  0.0481  -3.9220   0.0000   0.0000   0.0000   0.2403
  -7.100  -0.7826   0.01704   0.00973  -0.0011  1.0000  0.0517  -3.8916   0.0000   0.0000   0.0000   0.2422
  -7.000  -0.7772   0.01654   0.00926  -0.0001  1.0000  0.0557  -3.8311   0.0000   0.0000   0.0000   0.2435
  -6.900  -0.7700   0.01625   0.00899   0.0006  1.0000  0.0596  -3.7554   0.0000   0.0000   0.0000   0.2446
  -6.800  -0.7623   0.01601   0.00872   0.0013  1.0000  0.0638  -3.6793   0.0000   0.0000   0.0000   0.2456
  -6.700  -0.7537   0.01588   0.00853   0.0019  1.0000  0.0671  -3.5944   0.0000   0.0000   0.0000   0.2464
  -6.600  -0.7494   0.01525   0.00791   0.0031  1.0000  0.0749  -3.5418   0.0000   0.0000   0.0000   0.2481
  -6.500  -0.7420   0.01500   0.00770   0.0037  1.0000  0.0808  -3.4617   0.0000   0.0000   0.0000   0.2491
  -6.400  -0.7336   0.01486   0.00751   0.0043  1.0000  0.0859  -3.3769   0.0000   0.0000   0.0000   0.2500
  -6.300  -0.7260   0.01463   0.00727   0.0049  1.0000  0.0908  -3.2978   0.0000   0.0000   0.0000   0.2510
  -6.200  -0.7193   0.01431   0.00701   0.0057  1.0000  0.0975  -3.2222   0.0000   0.0000   0.0000   0.2523
  -6.100  -0.7114   0.01413   0.00684   0.0063  1.0000  0.1033  -3.1391   0.0000   0.0000   0.0000   0.2532
  -6.000  -0.7028   0.01401   0.00668   0.0068  1.0000  0.1083  -3.0538   0.0000   0.0000   0.0000   0.2542
  -5.900  -0.6955   0.01376   0.00646   0.0075  1.0000  0.1146  -2.9766   0.0000   0.0000   0.0000   0.2554
  -5.800  -0.6881   0.01354   0.00629   0.0081  1.0000  0.1214  -2.8973   0.0000   0.0000   0.0000   0.2565
  -5.700  -0.6799   0.01339   0.00614   0.0087  1.0000  0.1280  -2.8152   0.0000   0.0000   0.0000   0.2575
  -5.600  -0.6718   0.01324   0.00597   0.0093  1.0000  0.1343  -2.7348   0.0000   0.0000   0.0000   0.2586
  -5.500  -0.6645   0.01301   0.00581   0.0099  1.0000  0.1427  -2.6580   0.0000   0.0000   0.0000   0.2599
  -5.400  -0.6563   0.01287   0.00569   0.0105  1.0000  0.1514  -2.5772   0.0000   0.0000   0.0000   0.2609
  -5.300  -0.6487   0.01268   0.00555   0.0111  1.0000  0.1610  -2.5003   0.0000   0.0000   0.0000   0.2622
  -5.200  -0.6409   0.01252   0.00543   0.0117  1.0000  0.1716  -2.4227   0.0000   0.0000   0.0000   0.2634
  -5.100  -0.6331   0.01235   0.00531   0.0123  1.0000  0.1822  -2.3464   0.0000   0.0000   0.0000   0.2646
  -5.000  -0.6255   0.01218   0.00519   0.0129  1.0000  0.1937  -2.2712   0.0000   0.0000   0.0000   0.2659
  -4.900  -0.6177   0.01202   0.00507   0.0135  1.0000  0.2049  -2.2008   0.0000   0.0000   0.0000   0.2672
  -4.800  -0.6101   0.01186   0.00497   0.0141  1.0000  0.2175  -2.1393   0.0000   0.0000   0.0000   0.2686
  -4.700  -0.6025   0.01170   0.00486   0.0147  1.0000  0.2300  -2.0784   0.0000   0.0000   0.0000   0.2700
  -4.600  -0.5947   0.01157   0.00477   0.0153  1.0000  0.2433  -2.0257   0.0000   0.0000   0.0000   0.2714
  -4.500  -0.5873   0.01140   0.00463   0.0160  1.0000  0.2563  -1.9777   0.0000   0.0000   0.0000   0.2729
  -4.300  -0.5721   0.01113   0.00446   0.0172  1.0000  0.2832  -1.8800   0.0000   0.0000   0.0000   0.2760
  -4.200  -0.5643   0.01101   0.00438   0.0178  1.0000  0.2964  -1.8313   0.0000   0.0000   0.0000   0.2775
  -4.100  -0.5567   0.01089   0.00431   0.0185  1.0000  0.3102  -1.7834   0.0000   0.0000   0.0000   0.2792
  -4.000  -0.5492   0.01077   0.00425   0.0191  1.0000  0.3234  -1.7360   0.0000   0.0000   0.0000   0.2809
  -3.900  -0.5414   0.01068   0.00419   0.0197  1.0000  0.3376  -1.6882   0.0000   0.0000   0.0000   0.2826
  -3.800  -0.5342   0.01055   0.00413   0.0204  1.0000  0.3515  -1.6421   0.0000   0.0000   0.0000   0.2844
  -3.700  -0.5266   0.01046   0.00408   0.0211  1.0000  0.3656  -1.5955   0.0000   0.0000   0.0000   0.2863
  -3.600  -0.5193   0.01036   0.00404   0.0217  1.0000  0.3804  -1.5498   0.0000   0.0000   0.0000   0.2882
  -3.500  -0.5121   0.01026   0.00400   0.0224  1.0000  0.3952  -1.5048   0.0000   0.0000   0.0000   0.2902
  -3.400  -0.5047   0.01018   0.00397   0.0231  1.0000  0.4111  -1.4597   0.0000   0.0000   0.0000   0.2922
  -3.300  -0.4977   0.01008   0.00394   0.0238  1.0000  0.4279  -1.4158   0.0000   0.0000   0.0000   0.2944
  -3.200  -0.4908   0.00999   0.00392   0.0246  1.0000  0.4444  -1.3726   0.0000   0.0000   0.0000   0.2967
  -3.100  -0.4838   0.00991   0.00391   0.0253  1.0000  0.4611  -1.3295   0.0000   0.0000   0.0000   0.2990
  -3.000  -0.4767   0.00984   0.00390   0.0260  1.0000  0.4783  -1.2867   0.0000   0.0000   0.0000   0.3013
  -2.900  -0.4701   0.00976   0.00389   0.0268  1.0000  0.4947  -1.2451   0.0000   0.0000   0.0000   0.3039
  -2.800  -0.4633   0.00969   0.00389   0.0276  1.0000  0.5107  -1.2035   0.0000   0.0000   0.0000   0.3064
  -2.700  -0.4486   0.00963   0.00390   0.0267  0.9982  0.5314  -1.1436   0.0000   0.0000   0.0000   0.3065
  -2.600  -0.4326   0.00956   0.00390   0.0257  0.9956  0.5537  -1.0802   0.0000   0.0000   0.0000   0.3063
  -2.500  -0.4165   0.00951   0.00393   0.0246  0.9930  0.5763  -1.0423   0.0000   0.0000   0.0000   0.3060
  -2.400  -0.3999   0.00948   0.00398   0.0234  0.9907  0.5984  -1.0076   0.0000   0.0000   0.0000   0.3056
  -2.300  -0.3845   0.00942   0.00399   0.0225  0.9883  0.6191  -0.9747   0.0000   0.0000   0.0000   0.3057
  -2.200  -0.3705   0.00932   0.00398   0.0219  0.9851  0.6384  -0.9437   0.0000   0.0000   0.0000   0.3064
  -2.100  -0.3558   0.00924   0.00398   0.0212  0.9819  0.6577  -0.9120   0.0000   0.0000   0.0000   0.3069
  -2.000  -0.3404   0.00917   0.00399   0.0204  0.9788  0.6767  -0.8798   0.0000   0.0000   0.0000   0.3073
  -1.900  -0.3243   0.00911   0.00399   0.0194  0.9760  0.6951  -0.8468   0.0000   0.0000   0.0000   0.3073
  -1.700  -0.2902   0.00901   0.00402   0.0172  0.9714  0.7310  -0.7795   0.0000   0.0000   0.0000   0.3065
  -1.600  -0.2722   0.00896   0.00404   0.0159  0.9697  0.7476  -0.7451   0.0000   0.0000   0.0000   0.3057
  -1.500  -0.2617   0.00887   0.00399   0.0162  0.9649  0.7622  -0.7199   0.0000   0.0000   0.0000   0.3092
  -1.400  -0.2482   0.00880   0.00395   0.0158  0.9609  0.7770  -0.6941   0.0000   0.0000   0.0000   0.3113
  -1.300  -0.2329   0.00873   0.00393   0.0152  0.9575  0.7911  -0.6687   0.0000   0.0000   0.0000   0.3126
  -1.200  -0.2168   0.00867   0.00391   0.0143  0.9546  0.8057  -0.6426   0.0000   0.0000   0.0000   0.3134
  -1.100  -0.1992   0.00862   0.00391   0.0132  0.9523  0.8185  -0.6154   0.0000   0.0000   0.0000   0.3137
  -1.000  -0.1814   0.00857   0.00389   0.0120  0.9501  0.8318  -0.5882   0.0000   0.0000   0.0000   0.3136
  -0.900  -0.1623   0.00853   0.00390   0.0106  0.9485  0.8435  -0.5598   0.0000   0.0000   0.0000   0.3127
  -0.800  -0.1447   0.00849   0.00388   0.0094  0.9463  0.8552  -0.5371   0.0000   0.0000   0.0000   0.3127
  -0.700  -0.1318   0.00846   0.00389   0.0093  0.9412  0.8655  -0.5185   0.0000   0.0000   0.0000   0.3186
  -0.600  -0.1167   0.00843   0.00387   0.0088  0.9371  0.8768  -0.4982   0.0000   0.0000   0.0000   0.3229
  -0.500  -0.0967   0.00842   0.00389   0.0072  0.9346  0.8846  -0.4739   0.0000   0.0000   0.0000   0.3223
  -0.400  -0.0769   0.00840   0.00388   0.0057  0.9319  0.8926  -0.4524   0.0000   0.0000   0.0000   0.3216
  -0.300  -0.0591   0.00837   0.00385   0.0045  0.9287  0.9012  -0.4331   0.0000   0.0000   0.0000   0.3246
  -0.200  -0.0364   0.00837   0.00386   0.0024  0.9265  0.9057  -0.4105   0.0000   0.0000   0.0000   0.3141
  -0.100  -0.0140   0.00837   0.00386   0.0003  0.9240  0.9103  -0.3882   0.0000   0.0000   0.0000   0.2707
   0.000   0.0001   0.00839   0.00389  -0.0000  0.9168  0.9168  -0.3737   0.0000   0.0000   0.0000   0.4574
   0.100   0.0141   0.00837   0.00386  -0.0003  0.9102  0.9241  -0.3882   0.0000   0.0000   0.0000   0.2720
   0.200   0.0366   0.00837   0.00386  -0.0024  0.9057  0.9265  -0.4104   0.0000   0.0000   0.0000   0.3147
   0.300   0.0592   0.00837   0.00385  -0.0046  0.9012  0.9287  -0.4331   0.0000   0.0000   0.0000   0.3249
   0.400   0.0771   0.00840   0.00388  -0.0057  0.8926  0.9319  -0.4524   0.0000   0.0000   0.0000   0.3219
   0.500   0.0968   0.00842   0.00389  -0.0072  0.8846  0.9346  -0.4743   0.0000   0.0000   0.0000   0.3225
   0.600   0.1169   0.00843   0.00387  -0.0088  0.8768  0.9371  -0.4986   0.0000   0.0000   0.0000   0.3231
   0.700   0.1319   0.00846   0.00389  -0.0094  0.8655  0.9412  -0.5189   0.0000   0.0000   0.0000   0.3187
   0.800   0.1445   0.00849   0.00388  -0.0094  0.8552  0.9465  -0.5374   0.0000   0.0000   0.0000   0.3125
   0.900   0.1625   0.00853   0.00390  -0.0106  0.8435  0.9486  -0.5602   0.0000   0.0000   0.0000   0.3128
   1.000   0.1816   0.00857   0.00389  -0.0120  0.8318  0.9502  -0.5879   0.0000   0.0000   0.0000   0.3137
   1.100   0.1994   0.00862   0.00391  -0.0132  0.8186  0.9523  -0.6151   0.0000   0.0000   0.0000   0.3138
   1.200   0.2169   0.00867   0.00391  -0.0143  0.8058  0.9546  -0.6424   0.0000   0.0000   0.0000   0.3135
   1.300   0.2331   0.00873   0.00394  -0.0152  0.7912  0.9576  -0.6684   0.0000   0.0000   0.0000   0.3127
   1.400   0.2483   0.00880   0.00395  -0.0159  0.7771  0.9610  -0.6938   0.0000   0.0000   0.0000   0.3114
   1.500   0.2618   0.00887   0.00399  -0.0162  0.7623  0.9650  -0.7196   0.0000   0.0000   0.0000   0.3092
   1.600   0.2725   0.00896   0.00404  -0.0159  0.7477  0.9697  -0.7450   0.0000   0.0000   0.0000   0.3058
   1.700   0.2905   0.00901   0.00402  -0.0172  0.7312  0.9715  -0.7794   0.0000   0.0000   0.0000   0.3067
   1.900   0.3245   0.00911   0.00399  -0.0195  0.6951  0.9760  -0.8467   0.0000   0.0000   0.0000   0.3074
   2.000   0.3406   0.00917   0.00399  -0.0205  0.6766  0.9789  -0.8796   0.0000   0.0000   0.0000   0.3073
   2.100   0.3559   0.00923   0.00398  -0.0213  0.6576  0.9820  -0.9118   0.0000   0.0000   0.0000   0.3070
   2.200   0.3705   0.00931   0.00398  -0.0220  0.6384  0.9852  -0.9433   0.0000   0.0000   0.0000   0.3064
   2.400   0.3998   0.00947   0.00398  -0.0234  0.5988  0.9907  -1.0071   0.0000   0.0000   0.0000   0.3056
   2.500   0.4164   0.00951   0.00393  -0.0245  0.5768  0.9930  -1.0417   0.0000   0.0000   0.0000   0.3060
   2.600   0.4325   0.00956   0.00390  -0.0256  0.5542  0.9956  -1.0794   0.0000   0.0000   0.0000   0.3063
   2.700   0.4484   0.00962   0.00390  -0.0267  0.5318  0.9981  -1.1428   0.0000   0.0000   0.0000   0.3065
   2.800   0.4632   0.00969   0.00389  -0.0276  0.5109  1.0000  -1.2029   0.0000   0.0000   0.0000   0.3064
   2.900   0.4701   0.00975   0.00389  -0.0268  0.4950  1.0000  -1.2445   0.0000   0.0000   0.0000   0.3038
   3.000   0.4767   0.00984   0.00389  -0.0260  0.4786  1.0000  -1.2860   0.0000   0.0000   0.0000   0.3013
   3.100   0.4838   0.00991   0.00391  -0.0253  0.4614  1.0000  -1.3289   0.0000   0.0000   0.0000   0.2990
   3.200   0.4908   0.00999   0.00392  -0.0246  0.4446  1.0000  -1.3720   0.0000   0.0000   0.0000   0.2967
   3.300   0.4976   0.01008   0.00394  -0.0238  0.4280  1.0000  -1.4152   0.0000   0.0000   0.0000   0.2944
   3.400   0.5047   0.01018   0.00397  -0.0231  0.4112  1.0000  -1.4591   0.0000   0.0000   0.0000   0.2922
   3.500   0.5120   0.01026   0.00400  -0.0224  0.3952  1.0000  -1.5041   0.0000   0.0000   0.0000   0.2902
   3.600   0.5192   0.01036   0.00404  -0.0217  0.3804  1.0000  -1.5491   0.0000   0.0000   0.0000   0.2882
   3.700   0.5266   0.01046   0.00408  -0.0210  0.3656  1.0000  -1.5948   0.0000   0.0000   0.0000   0.2862
   3.800   0.5342   0.01055   0.00413  -0.0204  0.3515  1.0000  -1.6414   0.0000   0.0000   0.0000   0.2844
   3.900   0.5414   0.01068   0.00418  -0.0197  0.3377  1.0000  -1.6875   0.0000   0.0000   0.0000   0.2826
   4.000   0.5492   0.01077   0.00424  -0.0191  0.3235  1.0000  -1.7353   0.0000   0.0000   0.0000   0.2809
   4.100   0.5567   0.01089   0.00431  -0.0185  0.3102  1.0000  -1.7827   0.0000   0.0000   0.0000   0.2792
   4.200   0.5643   0.01101   0.00438  -0.0178  0.2964  1.0000  -1.8306   0.0000   0.0000   0.0000   0.2775
   4.300   0.5720   0.01113   0.00446  -0.0172  0.2832  1.0000  -1.8793   0.0000   0.0000   0.0000   0.2759
   4.500   0.5873   0.01140   0.00462  -0.0160  0.2562  1.0000  -1.9769   0.0000   0.0000   0.0000   0.2729
   4.600   0.5947   0.01156   0.00476  -0.0153  0.2432  1.0000  -2.0250   0.0000   0.0000   0.0000   0.2714
   4.700   0.6025   0.01170   0.00486  -0.0147  0.2300  1.0000  -2.0761   0.0000   0.0000   0.0000   0.2700
   4.800   0.6101   0.01186   0.00497  -0.0141  0.2176  1.0000  -2.1369   0.0000   0.0000   0.0000   0.2686
   4.900   0.6177   0.01202   0.00507  -0.0135  0.2052  1.0000  -2.1984   0.0000   0.0000   0.0000   0.2672
   5.000   0.6255   0.01218   0.00519  -0.0129  0.1940  1.0000  -2.2692   0.0000   0.0000   0.0000   0.2659
   5.100   0.6331   0.01235   0.00531  -0.0123  0.1825  1.0000  -2.3445   0.0000   0.0000   0.0000   0.2646
   5.200   0.6409   0.01252   0.00544  -0.0117  0.1719  1.0000  -2.4206   0.0000   0.0000   0.0000   0.2634
   5.300   0.6487   0.01268   0.00555  -0.0111  0.1612  1.0000  -2.4983   0.0000   0.0000   0.0000   0.2622
   5.400   0.6562   0.01288   0.00569  -0.0105  0.1516  1.0000  -2.5750   0.0000   0.0000   0.0000   0.2609
   5.500   0.6645   0.01301   0.00581  -0.0099  0.1428  1.0000  -2.6559   0.0000   0.0000   0.0000   0.2598
   5.600   0.6717   0.01324   0.00597  -0.0093  0.1343  1.0000  -2.7327   0.0000   0.0000   0.0000   0.2586
   5.700   0.6799   0.01339   0.00614  -0.0087  0.1279  1.0000  -2.8131   0.0000   0.0000   0.0000   0.2575
   5.800   0.6880   0.01354   0.00629  -0.0081  0.1213  1.0000  -2.8951   0.0000   0.0000   0.0000   0.2565
   5.900   0.6955   0.01376   0.00646  -0.0075  0.1145  1.0000  -2.9742   0.0000   0.0000   0.0000   0.2553
   6.000   0.7028   0.01401   0.00668  -0.0068  0.1082  1.0000  -3.0515   0.0000   0.0000   0.0000   0.2542
   6.100   0.7113   0.01413   0.00684  -0.0063  0.1032  1.0000  -3.1367   0.0000   0.0000   0.0000   0.2532
   6.200   0.7192   0.01432   0.00701  -0.0057  0.0973  1.0000  -3.2196   0.0000   0.0000   0.0000   0.2522
   6.300   0.7258   0.01465   0.00728  -0.0049  0.0905  1.0000  -3.2943   0.0000   0.0000   0.0000   0.2510
   6.400   0.7336   0.01486   0.00752  -0.0043  0.0858  1.0000  -3.3742   0.0000   0.0000   0.0000   0.2500
   6.500   0.7420   0.01501   0.00770  -0.0037  0.0807  1.0000  -3.4588   0.0000   0.0000   0.0000   0.2491
   6.600   0.7494   0.01526   0.00792  -0.0031  0.0748  1.0000  -3.5388   0.0000   0.0000   0.0000   0.2481
   6.700   0.7535   0.01589   0.00854  -0.0018  0.0672  1.0000  -3.5911   0.0000   0.0000   0.0000   0.2463
   6.800   0.7622   0.01602   0.00873  -0.0013  0.0640  1.0000  -3.6764   0.0000   0.0000   0.0000   0.2455
   6.900   0.7699   0.01626   0.00899  -0.0006  0.0598  1.0000  -3.7528   0.0000   0.0000   0.0000   0.2445
   7.000   0.7772   0.01654   0.00927   0.0001  0.0560  1.0000  -3.8288   0.0000   0.0000   0.0000   0.2435
   7.100   0.7829   0.01700   0.00970   0.0010  0.0522  1.0000  -3.8924   0.0000   0.0000   0.0000   0.2422
   7.200   0.7853   0.01800   0.01071   0.0025  0.0482  1.0000  -3.9173   0.0000   0.0000   0.0000   0.2402
   7.300   0.7941   0.01809   0.01084   0.0030  0.0471  1.0000  -4.0078   0.0000   0.0000   0.0000   0.2396
   7.400   0.8023   0.01826   0.01106   0.0036  0.0457  1.0000  -4.0931   0.0000   0.0000   0.0000   0.2388
   7.500   0.8099   0.01853   0.01137   0.0042  0.0443  1.0000  -4.1880   0.0000   0.0000   0.0000   0.2379
   7.600   0.8172   0.01887   0.01175   0.0050  0.0430  1.0000  -4.2786   0.0000   0.0000   0.0000   0.2370
   7.700   0.8243   0.01922   0.01213   0.0057  0.0418  1.0000  -4.3693   0.0000   0.0000   0.0000   0.2361
   7.800   0.8315   0.01957   0.01253   0.0064  0.0407  1.0000  -4.4606   0.0000   0.0000   0.0000   0.2351
   7.900   0.8386   0.01993   0.01292   0.0071  0.0396  1.0000  -4.5528   0.0000   0.0000   0.0000   0.2343
   8.000   0.8456   0.02029   0.01331   0.0079  0.0386  1.0000  -4.6454   0.0000   0.0000   0.0000   0.2334
   8.100   0.8525   0.02067   0.01372   0.0086  0.0376  1.0000  -4.7383   0.0000   0.0000   0.0000   0.2325
   8.200   0.8591   0.02106   0.01413   0.0093  0.0364  1.0000  -4.8312   0.0000   0.0000   0.0000   0.2316
   8.300   0.8650   0.02160   0.01469   0.0101  0.0351  1.0000  -4.9152   0.0000   0.0000   0.0000   0.2307
   8.400   0.8693   0.02259   0.01573   0.0112  0.0335  1.0000  -4.9703   0.0000   0.0000   0.0000   0.2294
   8.500   0.8706   0.02456   0.01787   0.0125  0.0318  1.0000  -4.9660   0.0000   0.0000   0.0000   0.2279
   8.600   0.8790   0.02443   0.01777   0.0130  0.0313  1.0000  -5.0889   0.0000   0.0000   0.0000   0.2273
   8.700   0.8867   0.02452   0.01790   0.0136  0.0306  1.0000  -5.1993   0.0000   0.0000   0.0000   0.2267
   8.800   0.8936   0.02487   0.01832   0.0143  0.0299  1.0000  -5.2911   0.0000   0.0000   0.0000   0.2259
   8.900   0.9001   0.02534   0.01886   0.0151  0.0292  1.0000  -5.3739   0.0000   0.0000   0.0000   0.2250
   9.000   0.9062   0.02586   0.01946   0.0159  0.0285  1.0000  -5.4527   0.0000   0.0000   0.0000   0.2242
   9.100   0.9121   0.02642   0.02009   0.0167  0.0278  1.0000  -5.5284   0.0000   0.0000   0.0000   0.2233
   9.200   0.9177   0.02701   0.02075   0.0175  0.0272  1.0000  -5.6014   0.0000   0.0000   0.0000   0.2224
   9.300   0.9230   0.02761   0.02143   0.0184  0.0265  1.0000  -5.6717   0.0000   0.0000   0.0000   0.2215
   9.500   0.9328   0.02885   0.02287   0.0201  0.0253  1.0000  -5.8120   0.0000   0.0000   0.0000   0.2196
   9.600   0.9374   0.02947   0.02357   0.0210  0.0247  1.0000  -5.8795   0.0000   0.0000   0.0000   0.2186
   9.700   0.9417   0.03010   0.02427   0.0219  0.0242  1.0000  -5.9460   0.0000   0.0000   0.0000   0.2177
   9.800   0.9456   0.03075   0.02498   0.0228  0.0237  1.0000  -6.0109   0.0000   0.0000   0.0000   0.2167
   9.900   0.9492   0.03143   0.02572   0.0238  0.0233  1.0000  -6.0731   0.0000   0.0000   0.0000   0.2157
  10.000   0.9523   0.03215   0.02651   0.0247  0.0229  1.0000  -6.1307   0.0000   0.0000   0.0000   0.2146
  10.100   0.9547   0.03295   0.02738   0.0258  0.0226  1.0000  -6.1815   0.0000   0.0000   0.0000   0.2135
  10.200   0.9564   0.03382   0.02834   0.0268  0.0222  1.0000  -6.2240   0.0000   0.0000   0.0000   0.2123
  10.300   0.9573   0.03476   0.02936   0.0280  0.0219  1.0000  -6.2606   0.0000   0.0000   0.0000   0.2111
  10.400   0.9572   0.03579   0.03047   0.0291  0.0216  1.0000  -6.2885   0.0000   0.0000   0.0000   0.2097
  10.500   0.9558   0.03692   0.03170   0.0304  0.0214  1.0000  -6.3044   0.0000   0.0000   0.0000   0.2083
  10.600   0.9530   0.03816   0.03304   0.0317  0.0211  1.0000  -6.3067   0.0000   0.0000   0.0000   0.2066
  10.700   0.9486   0.03947   0.03447   0.0332  0.0209  1.0000  -6.2970   0.0000   0.0000   0.0000   0.2049
  10.800   0.9425   0.04071   0.03581   0.0349  0.0207  1.0000  -6.2793   0.0000   0.0000   0.0000   0.2027
  10.900   0.9354   0.04189   0.03709   0.0367  0.0206  1.0000  -6.2576   0.0000   0.0000   0.0000   0.2004
  11.000   0.9278   0.04310   0.03839   0.0383  0.0205  1.0000  -6.2331   0.0000   0.0000   0.0000   0.1982
  11.100   0.9200   0.04436   0.03974   0.0398  0.0204  1.0000  -6.2063   0.0000   0.0000   0.0000   0.1961
  11.200   0.9121   0.04566   0.04114   0.0410  0.0204  1.0000  -6.1780   0.0000   0.0000   0.0000   0.1943
  11.300   0.9041   0.04701   0.04257   0.0420  0.0203  1.0000  -6.1490   0.0000   0.0000   0.0000   0.1927
  11.400   0.8962   0.04842   0.04406   0.0426  0.0203  1.0000  -6.1194   0.0000   0.0000   0.0000   0.1913
  11.500   0.8883   0.04988   0.04561   0.0430  0.0203  1.0000  -6.0896   0.0000   0.0000   0.0000   0.1903
  11.600   0.8805   0.05141   0.04722   0.0432  0.0202  1.0000  -6.0595   0.0000   0.0000   0.0000   0.1896
  11.700   0.8729   0.05302   0.04890   0.0430  0.0202  1.0000  -6.0292   0.0000   0.0000   0.0000   0.1891
  11.800   0.8655   0.05471   0.05066   0.0426  0.0202  1.0000  -5.9985   0.0000   0.0000   0.0000   0.1890
  11.900   0.8582   0.05650   0.05252   0.0420  0.0202  1.0000  -5.9671   0.0000   0.0000   0.0000   0.1891
  12.000   0.8512   0.05838   0.05446   0.0411  0.0202  1.0000  -5.9351   0.0000   0.0000   0.0000   0.1896
  12.100   0.8443   0.06036   0.05651   0.0400  0.0203  1.0000  -5.9021   0.0000   0.0000   0.0000   0.1903
  12.200   0.8377   0.06245   0.05866   0.0387  0.0203  1.0000  -5.8676   0.0000   0.0000   0.0000   0.1913
  12.300   0.8312   0.06467   0.06094   0.0372  0.0203  1.0000  -5.8312   0.0000   0.0000   0.0000   0.1926
  12.400   0.8248   0.06701   0.06333   0.0355  0.0204  1.0000  -5.7922   0.0000   0.0000   0.0000   0.1941
  12.500   0.8186   0.06946   0.06584   0.0337  0.0205  1.0000  -5.7499   0.0000   0.0000   0.0000   0.1958
  12.600   0.8123   0.07208   0.06851   0.0317  0.0206  1.0000  -5.7023   0.0000   0.0000   0.0000   0.1978
  12.700   0.8058   0.07491   0.07140   0.0295  0.0207  1.0000  -5.6459   0.0000   0.0000   0.0000   0.2000
  12.800   0.7984   0.07814   0.07469   0.0270  0.0209  1.0000  -5.5690   0.0000   0.0000   0.0000   0.2027
  12.900   0.6612   0.11751   0.11414   0.0040  0.0283  1.0000  -3.2801   0.0000   0.0000   0.0000   0.2319
  13.000   0.6563   0.12062   0.11724   0.0027  0.0286  1.0000  -3.1860   0.0000   0.0000   0.0000   0.2338
  13.100   0.6521   0.12353   0.12014   0.0016  0.0290  1.0000  -3.1036   0.0000   0.0000   0.0000   0.2356
  13.200   0.6485   0.12629   0.12288   0.0005  0.0294  1.0000  -3.0299   0.0000   0.0000   0.0000   0.2372
  13.300   0.6453   0.12896   0.12555  -0.0005  0.0298  1.0000  -2.9625   0.0000   0.0000   0.0000   0.2386
  13.400   0.6419   0.13166   0.12824  -0.0014  0.0304  1.0000  -2.8959   0.0000   0.0000   0.0000   0.2400
  13.700   0.6245   0.14788   0.14444  -0.0046  0.0479  1.0000  -2.3079   0.0000   0.0000   0.0000   0.2457
  13.800   0.6252   0.14973   0.14629  -0.0055  0.0478  1.0000  -2.2871   0.0000   0.0000   0.0000   0.2469
  13.900   0.6260   0.15151   0.14806  -0.0063  0.0477  1.0000  -2.2671   0.0000   0.0000   0.0000   0.2482
  14.000   0.6270   0.15315   0.14970  -0.0072  0.0475  1.0000  -2.2475   0.0000   0.0000   0.0000   0.2496
  14.100   0.6282   0.15423   0.15077  -0.0086  0.0467  1.0000  -2.2207   0.0000   0.0000   0.0000   0.2517
  14.200   0.6261   0.15581   0.15233  -0.0108  0.0447  1.0000  -2.1481   0.0000   0.0000   0.0000   0.2552
  14.300   0.6256   0.15754   0.15406  -0.0120  0.0435  1.0000  -2.1146   0.0000   0.0000   0.0000   0.2570
  14.400   0.6261   0.15922   0.15573  -0.0129  0.0424  1.0000  -2.0943   0.0000   0.0000   0.0000   0.2584
  14.500   0.6271   0.16080   0.15731  -0.0137  0.0413  1.0000  -2.0832   0.0000   0.0000   0.0000   0.2595
  14.600   0.6286   0.16228   0.15879  -0.0143  0.0401  1.0000  -2.0812   0.0000   0.0000   0.0000   0.2604
  14.700   0.6307   0.16360   0.16011  -0.0149  0.0389  1.0000  -2.0904   0.0000   0.0000   0.0000   0.2611
  14.800   0.6335   0.16470   0.16121  -0.0152  0.0377  1.0000  -2.1162   0.0000   0.0000   0.0000   0.2614
  14.900   0.6378   0.16542   0.16193  -0.0153  0.0363  1.0000  -2.1710   0.0000   0.0000   0.0000   0.2612
  15.000   0.6455   0.16540   0.16192  -0.0145  0.0349  1.0000  -2.2883   0.0000   0.0000   0.0000   0.2595


