xflr5 v6.61

 Calculated polar for: SD8020-010-88

 1 1 Reynolds number fixed          Mach number fixed         

 xtrf =   1.000 (top)        1.000 (bottom)
 Mach =   0.000     Re =     0.075 e 6     Ncrit =   9.000

  alpha     CL        CD       CDp       Cm    Top Xtr Bot Xtr   Cpmin    Chinge    XCp    
 ------- -------- --------- --------- -------- ------- ------- -------- --------- ---------
 -10.000  -0.7632   0.06730   0.06143  -0.0329  1.0000  0.0829  -3.6194   0.0000   0.0000   0.0000   0.1985
  -9.900  -0.7737   0.06557   0.05967  -0.0324  1.0000  0.0825  -3.6635   0.0000   0.0000   0.0000   0.1998
  -9.800  -0.7839   0.06395   0.05801  -0.0316  1.0000  0.0821  -3.7050   0.0000   0.0000   0.0000   0.2015
  -9.700  -0.7932   0.06227   0.05627  -0.0308  1.0000  0.0818  -3.7452   0.0000   0.0000   0.0000   0.2031
  -9.600  -0.8016   0.06051   0.05444  -0.0301  1.0000  0.0815  -3.7838   0.0000   0.0000   0.0000   0.2045
  -9.500  -0.8092   0.05876   0.05259  -0.0293  1.0000  0.0812  -3.8195   0.0000   0.0000   0.0000   0.2059
  -9.400  -0.8159   0.05701   0.05074  -0.0284  1.0000  0.0810  -3.8519   0.0000   0.0000   0.0000   0.2073
  -9.300  -0.8217   0.05528   0.04889  -0.0275  1.0000  0.0809  -3.8804   0.0000   0.0000   0.0000   0.2087
  -9.200  -0.8265   0.05357   0.04705  -0.0266  1.0000  0.0809  -3.9046   0.0000   0.0000   0.0000   0.2101
  -9.100  -0.8302   0.05191   0.04525  -0.0256  1.0000  0.0810  -3.9233   0.0000   0.0000   0.0000   0.2115
  -9.000  -0.8328   0.05040   0.04359  -0.0246  1.0000  0.0816  -3.9325   0.0000   0.0000   0.0000   0.2129
  -8.900  -0.8345   0.04903   0.04207  -0.0236  1.0000  0.0825  -3.9337   0.0000   0.0000   0.0000   0.2143
  -8.800  -0.8355   0.04779   0.04064  -0.0225  1.0000  0.0838  -3.9301   0.0000   0.0000   0.0000   0.2157
  -8.700  -0.8359   0.04667   0.03933  -0.0213  1.0000  0.0852  -3.9227   0.0000   0.0000   0.0000   0.2171
  -8.600  -0.8356   0.04572   0.03817  -0.0201  1.0000  0.0865  -3.9100   0.0000   0.0000   0.0000   0.2186
  -8.500  -0.8343   0.04502   0.03723  -0.0189  1.0000  0.0877  -3.8896   0.0000   0.0000   0.0000   0.2201
  -8.400  -0.8341   0.04355   0.03559  -0.0178  1.0000  0.0886  -3.8824   0.0000   0.0000   0.0000   0.2215
  -8.300  -0.8333   0.04130   0.03319  -0.0170  1.0000  0.0897  -3.8779   0.0000   0.0000   0.0000   0.2225
  -8.200  -0.8298   0.03962   0.03143  -0.0162  1.0000  0.0909  -3.8474   0.0000   0.0000   0.0000   0.2234
  -8.100  -0.8249   0.03829   0.03003  -0.0155  1.0000  0.0922  -3.8062   0.0000   0.0000   0.0000   0.2242
  -8.000  -0.8194   0.03719   0.02886  -0.0148  1.0000  0.0937  -3.7716   0.0000   0.0000   0.0000   0.2251
  -7.900  -0.8137   0.03619   0.02778  -0.0140  1.0000  0.0954  -3.7358   0.0000   0.0000   0.0000   0.2259
  -7.800  -0.8080   0.03523   0.02672  -0.0132  1.0000  0.0974  -3.7012   0.0000   0.0000   0.0000   0.2269
  -7.700  -0.8019   0.03428   0.02565  -0.0124  1.0000  0.0997  -3.6672   0.0000   0.0000   0.0000   0.2279
  -7.600  -0.7957   0.03334   0.02456  -0.0116  1.0000  0.1022  -3.6347   0.0000   0.0000   0.0000   0.2289
  -7.500  -0.7894   0.03241   0.02346  -0.0107  1.0000  0.1051  -3.6044   0.0000   0.0000   0.0000   0.2299
  -7.400  -0.7830   0.03160   0.02243  -0.0097  1.0000  0.1080  -3.5739   0.0000   0.0000   0.0000   0.2311
  -7.300  -0.7765   0.03036   0.02105  -0.0089  1.0000  0.1112  -3.5451   0.0000   0.0000   0.0000   0.2321
  -7.200  -0.7688   0.02933   0.02014  -0.0085  1.0000  0.1159  -3.4842   0.0000   0.0000   0.0000   0.2326
  -7.100  -0.7620   0.02895   0.01979  -0.0079  1.0000  0.1219  -3.4177   0.0000   0.0000   0.0000   0.2335
  -7.000  -0.7558   0.02858   0.01917  -0.0069  1.0000  0.1286  -3.3642   0.0000   0.0000   0.0000   0.2347
  -6.900  -0.7492   0.02768   0.01822  -0.0062  1.0000  0.1350  -3.3152   0.0000   0.0000   0.0000   0.2356
  -6.800  -0.7418   0.02717   0.01784  -0.0057  1.0000  0.1419  -3.2453   0.0000   0.0000   0.0000   0.2364
  -6.700  -0.7347   0.02666   0.01724  -0.0048  1.0000  0.1492  -3.1913   0.0000   0.0000   0.0000   0.2375
  -6.600  -0.7274   0.02593   0.01636  -0.0041  1.0000  0.1560  -3.1428   0.0000   0.0000   0.0000   0.2386
  -6.500  -0.7201   0.02541   0.01603  -0.0035  1.0000  0.1642  -3.0685   0.0000   0.0000   0.0000   0.2394
  -6.400  -0.7136   0.02513   0.01564  -0.0027  1.0000  0.1736  -3.0075   0.0000   0.0000   0.0000   0.2406
  -6.300  -0.7062   0.02447   0.01504  -0.0020  1.0000  0.1821  -2.9429   0.0000   0.0000   0.0000   0.2416
  -6.200  -0.6987   0.02407   0.01469  -0.0014  1.0000  0.1910  -2.8744   0.0000   0.0000   0.0000   0.2426
  -6.100  -0.6914   0.02367   0.01409  -0.0005  1.0000  0.1998  -2.8185   0.0000   0.0000   0.0000   0.2439
  -6.000  -0.6831   0.02299   0.01362  -0.0001  1.0000  0.2085  -2.7456   0.0000   0.0000   0.0000   0.2446
  -5.900  -0.6761   0.02269   0.01325   0.0007  1.0000  0.2196  -2.6810   0.0000   0.0000   0.0000   0.2459
  -5.800  -0.6687   0.02220   0.01287   0.0014  1.0000  0.2300  -2.6116   0.0000   0.0000   0.0000   0.2469
  -5.700  -0.6615   0.02188   0.01253   0.0022  1.0000  0.2419  -2.5457   0.0000   0.0000   0.0000   0.2482
  -5.600  -0.6539   0.02139   0.01213   0.0028  1.0000  0.2528  -2.4779   0.0000   0.0000   0.0000   0.2493
  -5.500  -0.6463   0.02103   0.01175   0.0036  1.0000  0.2652  -2.4125   0.0000   0.0000   0.0000   0.2506
  -5.400  -0.6385   0.02055   0.01138   0.0042  1.0000  0.2767  -2.3448   0.0000   0.0000   0.0000   0.2518
  -5.300  -0.6311   0.02021   0.01100   0.0050  1.0000  0.2907  -2.2808   0.0000   0.0000   0.0000   0.2531
  -5.200  -0.6236   0.01979   0.01074   0.0057  1.0000  0.3036  -2.2140   0.0000   0.0000   0.0000   0.2544
  -5.100  -0.6165   0.01945   0.01043   0.0065  1.0000  0.3192  -2.1601   0.0000   0.0000   0.0000   0.2559
  -5.000  -0.6096   0.01917   0.01020   0.0073  1.0000  0.3356  -2.1058   0.0000   0.0000   0.0000   0.2575
  -4.900  -0.6026   0.01884   0.01000   0.0081  1.0000  0.3513  -2.0501   0.0000   0.0000   0.0000   0.2591
  -4.800  -0.5956   0.01852   0.00976   0.0090  1.0000  0.3685  -1.9958   0.0000   0.0000   0.0000   0.2607
  -4.700  -0.5886   0.01824   0.00952   0.0098  1.0000  0.3868  -1.9506   0.0000   0.0000   0.0000   0.2624
  -4.600  -0.5816   0.01795   0.00926   0.0107  1.0000  0.4045  -1.9062   0.0000   0.0000   0.0000   0.2642
  -4.500  -0.5744   0.01766   0.00909   0.0116  1.0000  0.4220  -1.8614   0.0000   0.0000   0.0000   0.2660
  -4.400  -0.5675   0.01740   0.00892   0.0125  1.0000  0.4408  -1.8173   0.0000   0.0000   0.0000   0.2680
  -4.300  -0.5606   0.01716   0.00876   0.0134  1.0000  0.4606  -1.7735   0.0000   0.0000   0.0000   0.2700
  -4.200  -0.5539   0.01694   0.00862   0.0144  1.0000  0.4810  -1.7300   0.0000   0.0000   0.0000   0.2721
  -4.000  -0.5402   0.01654   0.00841   0.0164  1.0000  0.5213  -1.6421   0.0000   0.0000   0.0000   0.2766
  -3.900  -0.5331   0.01635   0.00833   0.0175  1.0000  0.5410  -1.5979   0.0000   0.0000   0.0000   0.2791
  -3.800  -0.5262   0.01618   0.00826   0.0185  1.0000  0.5612  -1.5540   0.0000   0.0000   0.0000   0.2816
  -3.700  -0.5192   0.01603   0.00819   0.0196  1.0000  0.5817  -1.5104   0.0000   0.0000   0.0000   0.2842
  -3.600  -0.5123   0.01589   0.00813   0.0207  1.0000  0.6023  -1.4671   0.0000   0.0000   0.0000   0.2869
  -3.500  -0.5053   0.01577   0.00807   0.0218  1.0000  0.6229  -1.4242   0.0000   0.0000   0.0000   0.2897
  -3.400  -0.4985   0.01566   0.00802   0.0229  1.0000  0.6436  -1.3819   0.0000   0.0000   0.0000   0.2926
  -3.300  -0.4913   0.01557   0.00801   0.0241  1.0000  0.6635  -1.3384   0.0000   0.0000   0.0000   0.2957
  -3.200  -0.4838   0.01550   0.00802   0.0252  1.0000  0.6829  -1.2943   0.0000   0.0000   0.0000   0.2989
  -3.100  -0.4763   0.01544   0.00804   0.0264  1.0000  0.7023  -1.2505   0.0000   0.0000   0.0000   0.3023
  -3.000  -0.4687   0.01540   0.00805   0.0276  1.0000  0.7218  -1.2071   0.0000   0.0000   0.0000   0.3057
  -2.900  -0.4610   0.01536   0.00805   0.0287  1.0000  0.7413  -1.1641   0.0000   0.0000   0.0000   0.3091
  -2.800  -0.4537   0.01534   0.00805   0.0298  1.0000  0.7610  -1.1220   0.0000   0.0000   0.0000   0.3128
  -2.700  -0.4444   0.01537   0.00812   0.0308  1.0000  0.7797  -1.0794   0.0000   0.0000   0.0000   0.3164
  -2.600  -0.4338   0.01543   0.00816   0.0316  1.0000  0.7978  -1.0460   0.0000   0.0000   0.0000   0.3199
  -2.500  -0.4225   0.01551   0.00825   0.0322  1.0000  0.8159  -1.0179   0.0000   0.0000   0.0000   0.3233
  -2.400  -0.4110   0.01560   0.00834   0.0327  1.0000  0.8342  -0.9898   0.0000   0.0000   0.0000   0.3266
  -2.300  -0.3973   0.01574   0.00846   0.0328  1.0000  0.8521  -0.9591   0.0000   0.0000   0.0000   0.3297
  -2.200  -0.3742   0.01602   0.00871   0.0313  1.0000  0.8671  -0.9161   0.0000   0.0000   0.0000   0.3309
  -2.100  -0.3537   0.01625   0.00888   0.0301  1.0000  0.8823  -0.8771   0.0000   0.0000   0.0000   0.3324
  -2.000  -0.3286   0.01653   0.00910   0.0281  1.0000  0.8961  -0.8327   0.0000   0.0000   0.0000   0.3327
  -1.900  -0.2982   0.01682   0.00931   0.0250  1.0000  0.9072  -0.7822   0.0000   0.0000   0.0000   0.3310
  -1.800  -0.2670   0.01708   0.00948   0.0216  1.0000  0.9182  -0.7315   0.0000   0.0000   0.0000   0.3281
  -1.700  -0.2354   0.01726   0.00954   0.0181  1.0000  0.9280  -0.6868   0.0000   0.0000   0.0000   0.3237
  -1.600  -0.1991   0.01741   0.00960   0.0135  1.0000  0.9365  -0.6402   0.0000   0.0000   0.0000   0.3148
  -1.500  -0.1761   0.01749   0.00963   0.0113  1.0000  0.9481  -0.6081   0.0000   0.0000   0.0000   0.3106
  -1.400  -0.1393   0.01748   0.00954   0.0064  1.0000  0.9554  -0.5624   0.0000   0.0000   0.0000   0.2923
  -1.300  -0.1117   0.01747   0.00948   0.0031  1.0000  0.9656  -0.5286   0.0000   0.0000   0.0000   0.2738
  -1.200  -0.0811   0.01736   0.00932  -0.0008  1.0000  0.9740  -0.4958   0.0000   0.0000   0.0000   0.2346
  -1.100  -0.0491   0.01719   0.00911  -0.0051  1.0000  0.9825  -0.4624   0.0000   0.0000   0.0000   0.1386
  -1.000  -0.0198   0.01704   0.00891  -0.0090  1.0000  0.9911  -0.4329   0.0000   0.0000   0.0000  -0.2189
  -0.900   0.0135   0.01676   0.00858  -0.0138  1.0000  0.9991  -0.4033   0.0000   0.0000   0.0000   1.2838
  -0.800   0.0182   0.01660   0.00843  -0.0134  1.0000  1.0000  -0.3953   0.0000   0.0000   0.0000   0.9968
  -0.700   0.0181   0.01647   0.00830  -0.0121  1.0000  1.0000  -0.3908   0.0000   0.0000   0.0000   0.9280
  -0.600   0.0175   0.01635   0.00820  -0.0107  1.0000  1.0000  -0.3865   0.0000   0.0000   0.0000   0.8715
  -0.500   0.0163   0.01624   0.00811  -0.0093  1.0000  1.0000  -0.3827   0.0000   0.0000   0.0000   0.8254
  -0.400   0.0143   0.01616   0.00804  -0.0076  1.0000  1.0000  -0.3793   0.0000   0.0000   0.0000   0.7887
  -0.300   0.0116   0.01609   0.00798  -0.0059  1.0000  1.0000  -0.3766   0.0000   0.0000   0.0000   0.7606
  -0.200   0.0082   0.01604   0.00794  -0.0040  1.0000  1.0000  -0.3748   0.0000   0.0000   0.0000   0.7411
  -0.100   0.0042   0.01602   0.00792  -0.0020  1.0000  1.0000  -0.3733   0.0000   0.0000   0.0000   0.7317
   0.000  -0.0001   0.01601   0.00791   0.0000  1.0000  1.0000  -0.3720   0.0000   0.0000   0.0000   0.3592
   0.100  -0.0044   0.01602   0.00792   0.0020  1.0000  1.0000  -0.3732   0.0000   0.0000   0.0000   0.7216
   0.200  -0.0083   0.01604   0.00794   0.0040  1.0000  1.0000  -0.3746   0.0000   0.0000   0.0000   0.7361
   0.300  -0.0117   0.01609   0.00798   0.0059  1.0000  1.0000  -0.3765   0.0000   0.0000   0.0000   0.7572
   0.400  -0.0144   0.01616   0.00803   0.0076  1.0000  1.0000  -0.3791   0.0000   0.0000   0.0000   0.7862
   0.500  -0.0163   0.01624   0.00811   0.0093  1.0000  1.0000  -0.3825   0.0000   0.0000   0.0000   0.8236
   0.600  -0.0175   0.01634   0.00819   0.0107  1.0000  1.0000  -0.3864   0.0000   0.0000   0.0000   0.8703
   0.700  -0.0181   0.01646   0.00830   0.0121  1.0000  1.0000  -0.3906   0.0000   0.0000   0.0000   0.9273
   0.800  -0.0182   0.01660   0.00842   0.0134  1.0000  1.0000  -0.3952   0.0000   0.0000   0.0000   0.9966
   0.900  -0.0137   0.01676   0.00858   0.0138  0.9991  1.0000  -0.4031   0.0000   0.0000   0.0000   1.2724
   1.000   0.0196   0.01704   0.00890   0.0090  0.9911  1.0000  -0.4326   0.0000   0.0000   0.0000  -0.2251
   1.100   0.0489   0.01719   0.00910   0.0052  0.9826  1.0000  -0.4625   0.0000   0.0000   0.0000   0.1376
   1.200   0.0808   0.01736   0.00932   0.0009  0.9740  1.0000  -0.4958   0.0000   0.0000   0.0000   0.2341
   1.300   0.1116   0.01747   0.00948  -0.0031  0.9657  1.0000  -0.5287   0.0000   0.0000   0.0000   0.2736
   1.400   0.1391   0.01748   0.00954  -0.0064  0.9555  1.0000  -0.5618   0.0000   0.0000   0.0000   0.2921
   1.500   0.1758   0.01749   0.00962  -0.0112  0.9481  1.0000  -0.6074   0.0000   0.0000   0.0000   0.3105
   1.600   0.1989   0.01741   0.00960  -0.0135  0.9365  1.0000  -0.6396   0.0000   0.0000   0.0000   0.3147
   1.700   0.2352   0.01726   0.00954  -0.0180  0.9281  1.0000  -0.6861   0.0000   0.0000   0.0000   0.3236
   1.800   0.2669   0.01708   0.00948  -0.0216  0.9183  1.0000  -0.7311   0.0000   0.0000   0.0000   0.3281
   1.900   0.2980   0.01682   0.00931  -0.0250  0.9073  1.0000  -0.7816   0.0000   0.0000   0.0000   0.3309
   2.000   0.3285   0.01652   0.00909  -0.0281  0.8962  1.0000  -0.8323   0.0000   0.0000   0.0000   0.3327
   2.100   0.3535   0.01625   0.00888  -0.0301  0.8824  1.0000  -0.8765   0.0000   0.0000   0.0000   0.3324
   2.200   0.3741   0.01602   0.00871  -0.0313  0.8672  1.0000  -0.9157   0.0000   0.0000   0.0000   0.3309
   2.300   0.3974   0.01574   0.00846  -0.0328  0.8524  1.0000  -0.9589   0.0000   0.0000   0.0000   0.3298
   2.400   0.4108   0.01560   0.00834  -0.0326  0.8344  1.0000  -0.9893   0.0000   0.0000   0.0000   0.3266
   2.500   0.4224   0.01551   0.00825  -0.0322  0.8161  1.0000  -1.0175   0.0000   0.0000   0.0000   0.3233
   2.600   0.4337   0.01543   0.00815  -0.0316  0.7980  1.0000  -1.0466   0.0000   0.0000   0.0000   0.3199
   2.700   0.4444   0.01536   0.00811  -0.0308  0.7799  1.0000  -1.0807   0.0000   0.0000   0.0000   0.3164
   2.800   0.4536   0.01534   0.00805  -0.0298  0.7612  1.0000  -1.1213   0.0000   0.0000   0.0000   0.3128
   2.900   0.4610   0.01536   0.00805  -0.0287  0.7414  1.0000  -1.1634   0.0000   0.0000   0.0000   0.3091
   3.000   0.4686   0.01540   0.00804  -0.0276  0.7219  1.0000  -1.2065   0.0000   0.0000   0.0000   0.3057
   3.100   0.4763   0.01544   0.00803  -0.0264  0.7024  1.0000  -1.2500   0.0000   0.0000   0.0000   0.3023
   3.200   0.4838   0.01550   0.00802  -0.0252  0.6830  1.0000  -1.2937   0.0000   0.0000   0.0000   0.2989
   3.300   0.4913   0.01556   0.00800  -0.0241  0.6636  1.0000  -1.3378   0.0000   0.0000   0.0000   0.2957
   3.400   0.4985   0.01565   0.00802  -0.0229  0.6437  1.0000  -1.3812   0.0000   0.0000   0.0000   0.2926
   3.500   0.5053   0.01576   0.00807  -0.0218  0.6230  1.0000  -1.4235   0.0000   0.0000   0.0000   0.2897
   3.600   0.5122   0.01589   0.00813  -0.0207  0.6023  1.0000  -1.4664   0.0000   0.0000   0.0000   0.2869
   3.700   0.5192   0.01603   0.00819  -0.0196  0.5817  1.0000  -1.5097   0.0000   0.0000   0.0000   0.2842
   3.800   0.5261   0.01618   0.00825  -0.0185  0.5613  1.0000  -1.5533   0.0000   0.0000   0.0000   0.2816
   3.900   0.5331   0.01635   0.00833  -0.0175  0.5411  1.0000  -1.5972   0.0000   0.0000   0.0000   0.2790
   4.000   0.5402   0.01654   0.00841  -0.0164  0.5214  1.0000  -1.6415   0.0000   0.0000   0.0000   0.2766
   4.200   0.5539   0.01694   0.00862  -0.0144  0.4811  1.0000  -1.7293   0.0000   0.0000   0.0000   0.2721
   4.300   0.5606   0.01716   0.00877  -0.0134  0.4607  1.0000  -1.7728   0.0000   0.0000   0.0000   0.2700
   4.400   0.5675   0.01740   0.00892  -0.0125  0.4409  1.0000  -1.8166   0.0000   0.0000   0.0000   0.2680
   4.500   0.5744   0.01766   0.00909  -0.0116  0.4221  1.0000  -1.8607   0.0000   0.0000   0.0000   0.2660
   4.600   0.5816   0.01795   0.00926  -0.0107  0.4045  1.0000  -1.9055   0.0000   0.0000   0.0000   0.2642
   4.700   0.5886   0.01824   0.00952  -0.0098  0.3869  1.0000  -1.9499   0.0000   0.0000   0.0000   0.2624
   4.800   0.5956   0.01852   0.00976  -0.0090  0.3685  1.0000  -1.9938   0.0000   0.0000   0.0000   0.2607
   4.900   0.6026   0.01883   0.01000  -0.0081  0.3513  1.0000  -2.0480   0.0000   0.0000   0.0000   0.2591
   5.000   0.6096   0.01917   0.01019  -0.0073  0.3356  1.0000  -2.1037   0.0000   0.0000   0.0000   0.2575
   5.100   0.6164   0.01945   0.01043  -0.0065  0.3192  1.0000  -2.1581   0.0000   0.0000   0.0000   0.2559
   5.200   0.6236   0.01979   0.01074  -0.0057  0.3036  1.0000  -2.2118   0.0000   0.0000   0.0000   0.2544
   5.300   0.6311   0.02021   0.01100  -0.0050  0.2907  1.0000  -2.2791   0.0000   0.0000   0.0000   0.2531
   5.400   0.6385   0.02055   0.01138  -0.0042  0.2767  1.0000  -2.3431   0.0000   0.0000   0.0000   0.2518
   5.500   0.6463   0.02103   0.01175  -0.0035  0.2651  1.0000  -2.4107   0.0000   0.0000   0.0000   0.2506
   5.600   0.6538   0.02139   0.01212  -0.0028  0.2527  1.0000  -2.4761   0.0000   0.0000   0.0000   0.2493
   5.700   0.6614   0.02187   0.01252  -0.0021  0.2417  1.0000  -2.5438   0.0000   0.0000   0.0000   0.2482
   5.800   0.6686   0.02219   0.01285  -0.0014  0.2298  1.0000  -2.6099   0.0000   0.0000   0.0000   0.2469
   5.900   0.6759   0.02267   0.01324  -0.0007  0.2193  1.0000  -2.6788   0.0000   0.0000   0.0000   0.2458
   6.000   0.6830   0.02298   0.01360   0.0001  0.2082  1.0000  -2.7437   0.0000   0.0000   0.0000   0.2446
   6.100   0.6913   0.02368   0.01408   0.0005  0.1995  1.0000  -2.8161   0.0000   0.0000   0.0000   0.2438
   6.200   0.6986   0.02407   0.01469   0.0014  0.1906  1.0000  -2.8720   0.0000   0.0000   0.0000   0.2426
   6.300   0.7061   0.02448   0.01503   0.0020  0.1819  1.0000  -2.9409   0.0000   0.0000   0.0000   0.2415
   6.400   0.7135   0.02513   0.01564   0.0027  0.1733  1.0000  -3.0046   0.0000   0.0000   0.0000   0.2406
   6.500   0.7200   0.02541   0.01602   0.0035  0.1639  1.0000  -3.0662   0.0000   0.0000   0.0000   0.2394
   6.600   0.7274   0.02596   0.01638   0.0041  0.1558  1.0000  -3.1405   0.0000   0.0000   0.0000   0.2386
   6.700   0.7347   0.02667   0.01724   0.0049  0.1490  1.0000  -3.1887   0.0000   0.0000   0.0000   0.2375
   6.800   0.7419   0.02718   0.01785   0.0057  0.1418  1.0000  -3.2427   0.0000   0.0000   0.0000   0.2364
   6.900   0.7492   0.02771   0.01825   0.0062  0.1351  1.0000  -3.3123   0.0000   0.0000   0.0000   0.2356
   7.000   0.7560   0.02863   0.01921   0.0069  0.1288  1.0000  -3.3615   0.0000   0.0000   0.0000   0.2347
   7.100   0.7622   0.02900   0.01984   0.0078  0.1221  1.0000  -3.4147   0.0000   0.0000   0.0000   0.2335
   7.200   0.7690   0.02937   0.02018   0.0085  0.1161  1.0000  -3.4812   0.0000   0.0000   0.0000   0.2326
   7.300   0.7766   0.03034   0.02103   0.0089  0.1113  1.0000  -3.5438   0.0000   0.0000   0.0000   0.2321
   7.400   0.7831   0.03162   0.02244   0.0097  0.1081  1.0000  -3.5731   0.0000   0.0000   0.0000   0.2311
   7.500   0.7895   0.03242   0.02347   0.0106  0.1053  1.0000  -3.6038   0.0000   0.0000   0.0000   0.2300
   7.600   0.7958   0.03335   0.02457   0.0115  0.1024  1.0000  -3.6340   0.0000   0.0000   0.0000   0.2289
   7.700   0.8020   0.03430   0.02567   0.0124  0.0999  1.0000  -3.6662   0.0000   0.0000   0.0000   0.2279
   7.800   0.8080   0.03525   0.02674   0.0132  0.0976  1.0000  -3.7002   0.0000   0.0000   0.0000   0.2269
   7.900   0.8138   0.03621   0.02781   0.0140  0.0956  1.0000  -3.7343   0.0000   0.0000   0.0000   0.2260
   8.000   0.8194   0.03721   0.02889   0.0148  0.0939  1.0000  -3.7696   0.0000   0.0000   0.0000   0.2251
   8.100   0.8249   0.03830   0.03005   0.0155  0.0924  1.0000  -3.8043   0.0000   0.0000   0.0000   0.2242
   8.200   0.8298   0.03959   0.03142   0.0162  0.0911  1.0000  -3.8472   0.0000   0.0000   0.0000   0.2234
   8.300   0.8336   0.04121   0.03311   0.0170  0.0899  1.0000  -3.8796   0.0000   0.0000   0.0000   0.2225
   8.400   0.8347   0.04338   0.03541   0.0178  0.0888  1.0000  -3.8884   0.0000   0.0000   0.0000   0.2216
   8.500   0.8345   0.04516   0.03736   0.0188  0.0879  1.0000  -3.8896   0.0000   0.0000   0.0000   0.2202
   8.600   0.8358   0.04583   0.03825   0.0201  0.0867  1.0000  -3.9109   0.0000   0.0000   0.0000   0.2187
   8.700   0.8362   0.04674   0.03939   0.0213  0.0854  1.0000  -3.9240   0.0000   0.0000   0.0000   0.2172
   8.800   0.8357   0.04784   0.04069   0.0224  0.0841  1.0000  -3.9313   0.0000   0.0000   0.0000   0.2157
   8.900   0.8347   0.04908   0.04211   0.0235  0.0828  1.0000  -3.9346   0.0000   0.0000   0.0000   0.2143
   9.000   0.8330   0.05044   0.04363   0.0245  0.0818  1.0000  -3.9333   0.0000   0.0000   0.0000   0.2130
   9.100   0.8305   0.05194   0.04527   0.0256  0.0812  1.0000  -3.9247   0.0000   0.0000   0.0000   0.2116
   9.200   0.8268   0.05358   0.04706   0.0265  0.0810  1.0000  -3.9068   0.0000   0.0000   0.0000   0.2102
   9.300   0.8220   0.05529   0.04890   0.0275  0.0810  1.0000  -3.8827   0.0000   0.0000   0.0000   0.2088
   9.400   0.8163   0.05702   0.05075   0.0284  0.0811  1.0000  -3.8543   0.0000   0.0000   0.0000   0.2074
   9.500   0.8097   0.05877   0.05260   0.0292  0.0813  1.0000  -3.8221   0.0000   0.0000   0.0000   0.2060
   9.600   0.8021   0.06053   0.05445   0.0300  0.0816  1.0000  -3.7866   0.0000   0.0000   0.0000   0.2046
   9.700   0.7938   0.06229   0.05629   0.0307  0.0819  1.0000  -3.7482   0.0000   0.0000   0.0000   0.2032
   9.800   0.7845   0.06398   0.05803   0.0315  0.0822  1.0000  -3.7082   0.0000   0.0000   0.0000   0.2017
   9.900   0.7744   0.06560   0.05970   0.0323  0.0826  1.0000  -3.6670   0.0000   0.0000   0.0000   0.2000
  10.000   0.7640   0.06732   0.06146   0.0328  0.0830  1.0000  -3.6232   0.0000   0.0000   0.0000   0.1986
  10.100   0.7536   0.06920   0.06336   0.0329  0.0835  1.0000  -3.5761   0.0000   0.0000   0.0000   0.1978
  10.200   0.7433   0.07126   0.06544   0.0325  0.0840  1.0000  -3.5259   0.0000   0.0000   0.0000   0.1976
  10.300   0.7333   0.07351   0.06771   0.0318  0.0845  1.0000  -3.4728   0.0000   0.0000   0.0000   0.1979
  10.400   0.7237   0.07595   0.07016   0.0307  0.0850  1.0000  -3.4177   0.0000   0.0000   0.0000   0.1987
  10.500   0.7150   0.07856   0.07277   0.0293  0.0856  1.0000  -3.3624   0.0000   0.0000   0.0000   0.1999
  10.600   0.7074   0.08129   0.07550   0.0280  0.0862  1.0000  -3.3094   0.0000   0.0000   0.0000   0.2013
  10.700   0.7011   0.08406   0.07826   0.0267  0.0867  1.0000  -3.2619   0.0000   0.0000   0.0000   0.2027
  10.800   0.6967   0.08680   0.08099   0.0256  0.0873  1.0000  -3.2240   0.0000   0.0000   0.0000   0.2039
  10.900   0.6952   0.08947   0.08364   0.0252  0.0878  1.0000  -3.2042   0.0000   0.0000   0.0000   0.2044
  11.100   0.5847   0.12031   0.11417  -0.0039  0.1866  1.0000  -1.8451   0.0000   0.0000   0.0000   0.2482
  11.200   0.5872   0.12184   0.11570  -0.0041  0.1847  1.0000  -1.8492   0.0000   0.0000   0.0000   0.2484
  11.300   0.5914   0.12341   0.11727  -0.0040  0.1830  1.0000  -1.8607   0.0000   0.0000   0.0000   0.2482
  11.400   0.6321   0.12796   0.12196   0.0012  0.1763  1.0000  -2.0496   0.0000   0.0000   0.0000   0.2397
  11.500   0.6236   0.12917   0.12313  -0.0005  0.1760  1.0000  -1.9988   0.0000   0.0000   0.0000   0.2422
  11.600   0.6144   0.13021   0.12412  -0.0022  0.1754  1.0000  -1.9443   0.0000   0.0000   0.0000   0.2449
  11.700   0.6046   0.13109   0.12496  -0.0041  0.1745  1.0000  -1.8868   0.0000   0.0000   0.0000   0.2478
  11.800   0.5954   0.13194   0.12576  -0.0058  0.1727  1.0000  -1.8373   0.0000   0.0000   0.0000   0.2507
  11.900   0.5899   0.13294   0.12674  -0.0070  0.1694  1.0000  -1.8053   0.0000   0.0000   0.0000   0.2527
  12.000   0.5900   0.13406   0.12785  -0.0075  0.1649  1.0000  -1.8027   0.0000   0.0000   0.0000   0.2533
  12.100   0.6052   0.13526   0.12910  -0.0057  0.1584  1.0000  -1.9001   0.0000   0.0000   0.0000   0.2500
  12.200   0.6233   0.13786   0.13176  -0.0037  0.1561  1.0000  -1.9981   0.0000   0.0000   0.0000   0.2466
  12.300   0.6489   0.14418   0.13821  -0.0008  0.1541  1.0000  -2.1175   0.0000   0.0000   0.0000   0.2420
  12.400   0.6425   0.14528   0.13928  -0.0023  0.1539  1.0000  -2.0738   0.0000   0.0000   0.0000   0.2443
  12.500   0.6345   0.14611   0.14008  -0.0040  0.1536  1.0000  -2.0226   0.0000   0.0000   0.0000   0.2469
  12.600   0.6247   0.14662   0.14054  -0.0060  0.1531  1.0000  -1.9621   0.0000   0.0000   0.0000   0.2500
  12.700   0.6126   0.14670   0.14050  -0.0083  0.1519  1.0000  -1.8920   0.0000   0.0000   0.0000   0.2537
  12.800   0.6031   0.14703   0.14079  -0.0102  0.1496  1.0000  -1.8334   0.0000   0.0000   0.0000   0.2569
  12.900   0.6000   0.14806   0.14180  -0.0112  0.1470  1.0000  -1.8094   0.0000   0.0000   0.0000   0.2586
  13.000   0.5998   0.14936   0.14308  -0.0119  0.1446  1.0000  -1.8017   0.0000   0.0000   0.0000   0.2596
  13.100   0.6012   0.15074   0.14447  -0.0123  0.1424  1.0000  -1.8032   0.0000   0.0000   0.0000   0.2602
  13.200   0.6040   0.15219   0.14592  -0.0126  0.1403  1.0000  -1.8128   0.0000   0.0000   0.0000   0.2604
  13.300   0.6084   0.15374   0.14755  -0.0126  0.1382  1.0000  -1.8294   0.0000   0.0000   0.0000   0.2602
  13.400   0.6155   0.15555   0.14938  -0.0123  0.1363  1.0000  -1.8630   0.0000   0.0000   0.0000   0.2594
  13.500   0.6282   0.15812   0.15198  -0.0112  0.1343  1.0000  -1.9277   0.0000   0.0000   0.0000   0.2572
  13.600   0.6614   0.16693   0.16088  -0.0072  0.1317  1.0000  -2.0913   0.0000   0.0000   0.0000   0.2505
  13.700   0.6571   0.16785   0.16177  -0.0085  0.1316  1.0000  -2.0545   0.0000   0.0000   0.0000   0.2526
  13.800   0.6521   0.16856   0.16245  -0.0100  0.1314  1.0000  -2.0138   0.0000   0.0000   0.0000   0.2548
  13.900   0.6462   0.16903   0.16289  -0.0116  0.1311  1.0000  -1.9687   0.0000   0.0000   0.0000   0.2573
  14.000   0.6392   0.16920   0.16303  -0.0134  0.1306  1.0000  -1.9176   0.0000   0.0000   0.0000   0.2601
  14.100   0.6311   0.16905   0.16283  -0.0153  0.1298  1.0000  -1.8623   0.0000   0.0000   0.0000   0.2631
  14.200   0.6238   0.16885   0.16261  -0.0169  0.1283  1.0000  -1.8126   0.0000   0.0000   0.0000   0.2659
  14.300   0.6207   0.16945   0.16319  -0.0181  0.1262  1.0000  -1.7828   0.0000   0.0000   0.0000   0.2678
  14.400   0.6205   0.17055   0.16427  -0.0190  0.1239  1.0000  -1.7696   0.0000   0.0000   0.0000   0.2691
  14.500   0.6219   0.17181   0.16553  -0.0196  0.1215  1.0000  -1.7661   0.0000   0.0000   0.0000   0.2699
  14.600   0.6246   0.17314   0.16687  -0.0199  0.1190  1.0000  -1.7722   0.0000   0.0000   0.0000   0.2702
  14.700   0.6294   0.17458   0.16831  -0.0199  0.1162  1.0000  -1.7953   0.0000   0.0000   0.0000   0.2698
  14.900   0.6720   0.18668   0.18052  -0.0151  0.1095  1.0000  -2.0271   0.0000   0.0000   0.0000   0.2608
  15.000   0.6692   0.18739   0.18120  -0.0164  0.1093  1.0000  -1.9931   0.0000   0.0000   0.0000   0.2627


