xflr5 v6.61

 Calculated polar for: SD8020-010-88

 1 1 Reynolds number fixed          Mach number fixed         

 xtrf =   1.000 (top)        1.000 (bottom)
 Mach =   0.000     Re =     0.025 e 6     Ncrit =   9.000

  alpha     CL        CD       CDp       Cm    Top Xtr Bot Xtr   Cpmin    Chinge    XCp    
 ------- -------- --------- --------- -------- ------- ------- -------- --------- ---------
  -9.900  -0.4520   0.11391   0.10269   0.0281  1.0000  0.6821  -1.2997   0.0000   0.0000   0.0000   0.3028
  -9.800  -0.4627   0.11513   0.10394   0.0299  1.0000  0.6890  -1.3172   0.0000   0.0000   0.0000   0.3055
  -9.700  -0.4405   0.11053   0.09914   0.0277  1.0000  0.7058  -1.2803   0.0000   0.0000   0.0000   0.3034
  -9.600  -0.4502   0.11156   0.10020   0.0294  1.0000  0.7124  -1.2960   0.0000   0.0000   0.0000   0.3061
  -9.500  -0.4393   0.10836   0.09696   0.0280  1.0000  0.7162  -1.2792   0.0000   0.0000   0.0000   0.3044
  -9.400  -0.4289   0.10574   0.09428   0.0267  1.0000  0.7215  -1.2617   0.0000   0.0000   0.0000   0.3030
  -9.300  -0.4245   0.10423   0.09274   0.0263  1.0000  0.7275  -1.2536   0.0000   0.0000   0.0000   0.3027
  -9.200  -0.4278   0.10401   0.09252   0.0271  1.0000  0.7338  -1.2584   0.0000   0.0000   0.0000   0.3043
  -9.100  -0.5780   0.10249   0.09191   0.0116  1.0000  0.3843  -1.8238   0.0000   0.0000   0.0000   0.2633
  -9.000  -0.5707   0.10000   0.08938   0.0110  1.0000  0.3821  -1.8095   0.0000   0.0000   0.0000   0.2625
  -8.900  -0.5712   0.09817   0.08756   0.0106  1.0000  0.3816  -1.8166   0.0000   0.0000   0.0000   0.2618
  -8.800  -0.5733   0.09644   0.08585   0.0102  1.0000  0.3816  -1.8277   0.0000   0.0000   0.0000   0.2611
  -8.700  -0.5760   0.09473   0.08417   0.0098  1.0000  0.3817  -1.8407   0.0000   0.0000   0.0000   0.2604
  -8.600  -0.5792   0.09301   0.08248   0.0094  1.0000  0.3819  -1.8548   0.0000   0.0000   0.0000   0.2598
  -8.500  -0.5825   0.09127   0.08077   0.0090  1.0000  0.3821  -1.8696   0.0000   0.0000   0.0000   0.2591
  -8.400  -0.5858   0.08948   0.07902   0.0086  1.0000  0.3821  -1.8845   0.0000   0.0000   0.0000   0.2584
  -8.300  -0.5891   0.08766   0.07722   0.0082  1.0000  0.3819  -1.8994   0.0000   0.0000   0.0000   0.2578
  -8.200  -0.5923   0.08579   0.07538   0.0078  1.0000  0.3816  -1.9144   0.0000   0.0000   0.0000   0.2571
  -8.100  -0.5956   0.08387   0.07350   0.0073  1.0000  0.3811  -1.9299   0.0000   0.0000   0.0000   0.2564
  -8.000  -0.5993   0.08192   0.07158   0.0069  1.0000  0.3803  -1.9468   0.0000   0.0000   0.0000   0.2556
  -7.900  -0.6037   0.07994   0.06964   0.0064  1.0000  0.3792  -1.9663   0.0000   0.0000   0.0000   0.2549
  -7.800  -0.6089   0.07793   0.06766   0.0060  1.0000  0.3779  -1.9890   0.0000   0.0000   0.0000   0.2542
  -7.700  -0.6152   0.07591   0.06570   0.0056  1.0000  0.3765  -2.0151   0.0000   0.0000   0.0000   0.2536
  -7.600  -0.6219   0.07385   0.06368   0.0052  1.0000  0.3753  -2.0437   0.0000   0.0000   0.0000   0.2529
  -7.500  -0.6289   0.07176   0.06163   0.0047  1.0000  0.3743  -2.0741   0.0000   0.0000   0.0000   0.2522
  -7.400  -0.6363   0.06966   0.05956   0.0043  1.0000  0.3736  -2.1052   0.0000   0.0000   0.0000   0.2516
  -7.300  -0.6428   0.06759   0.05752   0.0040  1.0000  0.3734  -2.1330   0.0000   0.0000   0.0000   0.2511
  -7.200  -0.6488   0.06556   0.05550   0.0038  1.0000  0.3739  -2.1577   0.0000   0.0000   0.0000   0.2508
  -7.100  -0.6543   0.06356   0.05351   0.0037  1.0000  0.3749  -2.1804   0.0000   0.0000   0.0000   0.2506
  -7.000  -0.6597   0.06158   0.05151   0.0036  1.0000  0.3762  -2.2022   0.0000   0.0000   0.0000   0.2505
  -6.900  -0.6651   0.05960   0.04951   0.0036  1.0000  0.3778  -2.2241   0.0000   0.0000   0.0000   0.2505
  -6.800  -0.6707   0.05761   0.04749   0.0036  1.0000  0.3797  -2.2468   0.0000   0.0000   0.0000   0.2506
  -6.700  -0.6766   0.05560   0.04543   0.0037  1.0000  0.3818  -2.2711   0.0000   0.0000   0.0000   0.2506
  -6.600  -0.6827   0.05358   0.04332   0.0037  1.0000  0.3839  -2.2976   0.0000   0.0000   0.0000   0.2507
  -6.500  -0.6646   0.05353   0.04330   0.0057  1.0000  0.4011  -2.1930   0.0000   0.0000   0.0000   0.2539
  -6.400  -0.6710   0.05173   0.04143   0.0061  1.0000  0.4060  -2.2146   0.0000   0.0000   0.0000   0.2544
  -6.300  -0.6563   0.05185   0.04158   0.0083  1.0000  0.4260  -2.1195   0.0000   0.0000   0.0000   0.2581
  -6.200  -0.6633   0.04999   0.03964   0.0086  1.0000  0.4305  -2.1441   0.0000   0.0000   0.0000   0.2585
  -6.100  -0.6466   0.04986   0.03953   0.0105  1.0000  0.4480  -2.0572   0.0000   0.0000   0.0000   0.2618
  -6.000  -0.6521   0.04805   0.03763   0.0108  1.0000  0.4531  -2.0753   0.0000   0.0000   0.0000   0.2621
  -5.900  -0.6374   0.04748   0.03707   0.0121  1.0000  0.4667  -2.0104   0.0000   0.0000   0.0000   0.2646
  -5.800  -0.6394   0.04597   0.03547   0.0126  1.0000  0.4747  -2.0126   0.0000   0.0000   0.0000   0.2654
  -5.700  -0.6265   0.04576   0.03527   0.0144  1.0000  0.4931  -1.9459   0.0000   0.0000   0.0000   0.2687
  -5.600  -0.6175   0.04540   0.03490   0.0162  1.0000  0.5113  -1.8939   0.0000   0.0000   0.0000   0.2720
  -5.500  -0.6197   0.04421   0.03366   0.0172  1.0000  0.5233  -1.8899   0.0000   0.0000   0.0000   0.2737
  -5.400  -0.6052   0.04409   0.03352   0.0191  1.0000  0.5436  -1.8183   0.0000   0.0000   0.0000   0.2773
  -5.300  -0.5925   0.04362   0.03288   0.0203  1.0000  0.5609  -1.7676   0.0000   0.0000   0.0000   0.2802
  -5.200  -0.5979   0.04223   0.03144   0.0213  1.0000  0.5715  -1.7768   0.0000   0.0000   0.0000   0.2816
  -5.100  -0.5839   0.04218   0.03135   0.0231  1.0000  0.5938  -1.7195   0.0000   0.0000   0.0000   0.2855
  -5.000  -0.5700   0.04212   0.03124   0.0249  1.0000  0.6172  -1.6631   0.0000   0.0000   0.0000   0.2896
  -4.900  -0.5545   0.04199   0.03102   0.0263  1.0000  0.6404  -1.6044   0.0000   0.0000   0.0000   0.2933
  -4.800  -0.5379   0.04182   0.03074   0.0273  1.0000  0.6641  -1.5440   0.0000   0.0000   0.0000   0.2967
  -4.700  -0.4907   0.04262   0.03124   0.0267  1.0000  0.7049  -1.4003   0.0000   0.0000   0.0000   0.3001
  -4.600  -0.4687   0.04236   0.03079   0.0264  1.0000  0.7320  -1.3300   0.0000   0.0000   0.0000   0.3021
  -4.500  -0.4103   0.04248   0.03047   0.0220  1.0000  0.7774  -1.1723   0.0000   0.0000   0.0000   0.2990
  -4.400  -0.3852   0.04195   0.02974   0.0202  1.0000  0.8058  -1.0997   0.0000   0.0000   0.0000   0.2976
  -4.300  -0.3227   0.04118   0.02841   0.0127  1.0000  0.8503  -0.9693   0.0000   0.0000   0.0000   0.2841
  -4.200  -0.2664   0.03991   0.02677   0.0049  1.0000  0.8906  -0.8803   0.0000   0.0000   0.0000   0.2622
  -4.100  -0.2306   0.03875   0.02537  -0.0005  1.0000  0.9209  -0.8316   0.0000   0.0000   0.0000   0.2411
  -4.000  -0.1709   0.03669   0.02296  -0.0109  1.0000  0.9599  -0.7552   0.0000   0.0000   0.0000   0.1780
  -3.900  -0.1091   0.03415   0.02009  -0.0230  1.0000  0.9979  -0.6793   0.0000   0.0000   0.0000   0.0280
  -3.800  -0.1027   0.03348   0.01936  -0.0239  1.0000  1.0000  -0.6672   0.0000   0.0000   0.0000   0.0058
  -3.700  -0.1000   0.03293   0.01879  -0.0239  1.0000  1.0000  -0.6588   0.0000   0.0000   0.0000  -0.0011
  -3.600  -0.0973   0.03241   0.01824  -0.0240  1.0000  1.0000  -0.6501   0.0000   0.0000   0.0000  -0.0081
  -3.500  -0.0945   0.03190   0.01764  -0.0240  1.0000  1.0000  -0.6420   0.0000   0.0000   0.0000  -0.0151
  -3.400  -0.0918   0.03141   0.01713  -0.0239  1.0000  1.0000  -0.6352   0.0000   0.0000   0.0000  -0.0221
  -3.300  -0.0890   0.03095   0.01664  -0.0238  1.0000  1.0000  -0.6281   0.0000   0.0000   0.0000  -0.0291
  -3.200  -0.0863   0.03050   0.01616  -0.0237  1.0000  1.0000  -0.6208   0.0000   0.0000   0.0000  -0.0361
  -3.100  -0.0835   0.03006   0.01571  -0.0235  1.0000  1.0000  -0.6132   0.0000   0.0000   0.0000  -0.0432
  -3.000  -0.0807   0.02965   0.01527  -0.0233  1.0000  1.0000  -0.6055   0.0000   0.0000   0.0000  -0.0502
  -2.900  -0.0779   0.02926   0.01486  -0.0230  1.0000  1.0000  -0.5975   0.0000   0.0000   0.0000  -0.0572
  -2.800  -0.0751   0.02888   0.01446  -0.0227  1.0000  1.0000  -0.5892   0.0000   0.0000   0.0000  -0.0642
  -2.700  -0.0723   0.02853   0.01409  -0.0224  1.0000  1.0000  -0.5808   0.0000   0.0000   0.0000  -0.0711
  -2.600  -0.0695   0.02819   0.01373  -0.0220  1.0000  1.0000  -0.5722   0.0000   0.0000   0.0000  -0.0781
  -2.500  -0.0666   0.02786   0.01339  -0.0216  1.0000  1.0000  -0.5635   0.0000   0.0000   0.0000  -0.0850
  -2.400  -0.0638   0.02756   0.01307  -0.0211  1.0000  1.0000  -0.5546   0.0000   0.0000   0.0000  -0.0919
  -2.300  -0.0610   0.02727   0.01277  -0.0206  1.0000  1.0000  -0.5455   0.0000   0.0000   0.0000  -0.0988
  -2.200  -0.0582   0.02699   0.01248  -0.0200  1.0000  1.0000  -0.5363   0.0000   0.0000   0.0000  -0.1055
  -2.100  -0.0554   0.02673   0.01221  -0.0194  1.0000  1.0000  -0.5269   0.0000   0.0000   0.0000  -0.1122
  -2.000  -0.0526   0.02649   0.01196  -0.0188  1.0000  1.0000  -0.5181   0.0000   0.0000   0.0000  -0.1187
  -1.900  -0.0498   0.02626   0.01172  -0.0181  1.0000  1.0000  -0.5105   0.0000   0.0000   0.0000  -0.1251
  -1.800  -0.0470   0.02605   0.01150  -0.0174  1.0000  1.0000  -0.5027   0.0000   0.0000   0.0000  -0.1312
  -1.700  -0.0443   0.02584   0.01129  -0.0166  1.0000  1.0000  -0.4948   0.0000   0.0000   0.0000  -0.1370
  -1.600  -0.0415   0.02565   0.01110  -0.0158  1.0000  1.0000  -0.4869   0.0000   0.0000   0.0000  -0.1424
  -1.500  -0.0389   0.02548   0.01092  -0.0150  1.0000  1.0000  -0.4789   0.0000   0.0000   0.0000  -0.1475
  -1.400  -0.0362   0.02531   0.01075  -0.0141  1.0000  1.0000  -0.4709   0.0000   0.0000   0.0000  -0.1521
  -1.300  -0.0336   0.02516   0.01060  -0.0133  1.0000  1.0000  -0.4628   0.0000   0.0000   0.0000  -0.1562
  -1.200  -0.0309   0.02502   0.01046  -0.0123  1.0000  1.0000  -0.4547   0.0000   0.0000   0.0000  -0.1599
  -1.100  -0.0283   0.02489   0.01031  -0.0114  1.0000  1.0000  -0.4467   0.0000   0.0000   0.0000  -0.1632
  -1.000  -0.0257   0.02478   0.01020  -0.0104  1.0000  1.0000  -0.4398   0.0000   0.0000   0.0000  -0.1665
  -0.900  -0.0231   0.02467   0.01009  -0.0094  1.0000  1.0000  -0.4329   0.0000   0.0000   0.0000  -0.1702
  -0.800  -0.0205   0.02458   0.01000  -0.0084  1.0000  1.0000  -0.4260   0.0000   0.0000   0.0000  -0.1737
  -0.700  -0.0179   0.02450   0.00992  -0.0074  1.0000  1.0000  -0.4190   0.0000   0.0000   0.0000  -0.1769
  -0.600  -0.0153   0.02442   0.00985  -0.0064  1.0000  1.0000  -0.4120   0.0000   0.0000   0.0000  -0.1797
  -0.500  -0.0127   0.02436   0.00979  -0.0054  1.0000  1.0000  -0.4050   0.0000   0.0000   0.0000  -0.1820
  -0.400  -0.0102   0.02431   0.00974  -0.0043  1.0000  1.0000  -0.3979   0.0000   0.0000   0.0000  -0.1839
  -0.300  -0.0076   0.02427   0.00970  -0.0032  1.0000  1.0000  -0.3909   0.0000   0.0000   0.0000  -0.1851
  -0.200  -0.0051   0.02425   0.00968  -0.0022  1.0000  1.0000  -0.3846   0.0000   0.0000   0.0000  -0.1857
  -0.100  -0.0026   0.02423   0.00966  -0.0011  1.0000  1.0000  -0.3785   0.0000   0.0000   0.0000  -0.1844
   0.000  -0.0000   0.02423   0.00965   0.0000  1.0000  1.0000  -0.3724   0.0000   0.0000   0.0000   0.3264
   0.100   0.0025   0.02423   0.00966   0.0011  1.0000  1.0000  -0.3784   0.0000   0.0000   0.0000  -0.1920
   0.200   0.0050   0.02425   0.00968   0.0022  1.0000  1.0000  -0.3845   0.0000   0.0000   0.0000  -0.1893
   0.300   0.0076   0.02427   0.00970   0.0032  1.0000  1.0000  -0.3908   0.0000   0.0000   0.0000  -0.1874
   0.400   0.0101   0.02431   0.00974   0.0043  1.0000  1.0000  -0.3978   0.0000   0.0000   0.0000  -0.1854
   0.500   0.0127   0.02436   0.00979   0.0054  1.0000  1.0000  -0.4049   0.0000   0.0000   0.0000  -0.1831
   0.600   0.0153   0.02442   0.00985   0.0064  1.0000  1.0000  -0.4119   0.0000   0.0000   0.0000  -0.1804
   0.700   0.0179   0.02449   0.00991   0.0074  1.0000  1.0000  -0.4189   0.0000   0.0000   0.0000  -0.1774
   0.800   0.0205   0.02458   0.01000   0.0084  1.0000  1.0000  -0.4259   0.0000   0.0000   0.0000  -0.1741
   0.900   0.0231   0.02467   0.01009   0.0094  1.0000  1.0000  -0.4328   0.0000   0.0000   0.0000  -0.1704
   1.000   0.0257   0.02477   0.01019   0.0104  1.0000  1.0000  -0.4397   0.0000   0.0000   0.0000  -0.1665
   1.100   0.0283   0.02489   0.01031   0.0114  1.0000  1.0000  -0.4467   0.0000   0.0000   0.0000  -0.1631
   1.200   0.0310   0.02502   0.01046   0.0123  1.0000  1.0000  -0.4549   0.0000   0.0000   0.0000  -0.1596
   1.300   0.0336   0.02516   0.01060   0.0133  1.0000  1.0000  -0.4630   0.0000   0.0000   0.0000  -0.1559
   1.400   0.0362   0.02531   0.01075   0.0141  1.0000  1.0000  -0.4711   0.0000   0.0000   0.0000  -0.1517
   1.500   0.0389   0.02547   0.01091   0.0150  1.0000  1.0000  -0.4791   0.0000   0.0000   0.0000  -0.1470
   1.600   0.0416   0.02565   0.01109   0.0158  1.0000  1.0000  -0.4871   0.0000   0.0000   0.0000  -0.1419
   1.700   0.0443   0.02584   0.01128   0.0166  1.0000  1.0000  -0.4950   0.0000   0.0000   0.0000  -0.1363
   1.800   0.0471   0.02604   0.01149   0.0174  1.0000  1.0000  -0.5029   0.0000   0.0000   0.0000  -0.1304
   1.900   0.0499   0.02625   0.01171   0.0181  1.0000  1.0000  -0.5107   0.0000   0.0000   0.0000  -0.1243
   2.000   0.0527   0.02648   0.01195   0.0188  1.0000  1.0000  -0.5183   0.0000   0.0000   0.0000  -0.1179
   2.100   0.0555   0.02673   0.01220   0.0194  1.0000  1.0000  -0.5267   0.0000   0.0000   0.0000  -0.1113
   2.200   0.0583   0.02698   0.01247   0.0200  1.0000  1.0000  -0.5361   0.0000   0.0000   0.0000  -0.1046
   2.300   0.0611   0.02726   0.01276   0.0206  1.0000  1.0000  -0.5453   0.0000   0.0000   0.0000  -0.0978
   2.400   0.0640   0.02755   0.01306   0.0211  1.0000  1.0000  -0.5544   0.0000   0.0000   0.0000  -0.0910
   2.500   0.0668   0.02785   0.01338   0.0216  1.0000  1.0000  -0.5633   0.0000   0.0000   0.0000  -0.0841
   2.600   0.0696   0.02817   0.01372   0.0220  1.0000  1.0000  -0.5721   0.0000   0.0000   0.0000  -0.0771
   2.700   0.0725   0.02851   0.01407   0.0224  1.0000  1.0000  -0.5807   0.0000   0.0000   0.0000  -0.0701
   2.800   0.0753   0.02887   0.01445   0.0227  1.0000  1.0000  -0.5891   0.0000   0.0000   0.0000  -0.0632
   2.900   0.0781   0.02924   0.01484   0.0230  1.0000  1.0000  -0.5974   0.0000   0.0000   0.0000  -0.0562
   3.000   0.0809   0.02964   0.01526   0.0233  1.0000  1.0000  -0.6054   0.0000   0.0000   0.0000  -0.0491
   3.100   0.0837   0.03005   0.01569   0.0235  1.0000  1.0000  -0.6132   0.0000   0.0000   0.0000  -0.0421
   3.200   0.0865   0.03048   0.01614   0.0237  1.0000  1.0000  -0.6208   0.0000   0.0000   0.0000  -0.0351
   3.300   0.0893   0.03093   0.01661   0.0238  1.0000  1.0000  -0.6281   0.0000   0.0000   0.0000  -0.0281
   3.400   0.0920   0.03139   0.01711   0.0239  1.0000  1.0000  -0.6352   0.0000   0.0000   0.0000  -0.0211
   3.500   0.0948   0.03188   0.01762   0.0239  1.0000  1.0000  -0.6420   0.0000   0.0000   0.0000  -0.0141
   3.600   0.0976   0.03239   0.01821   0.0239  1.0000  1.0000  -0.6504   0.0000   0.0000   0.0000  -0.0070
   3.700   0.1003   0.03291   0.01876   0.0239  1.0000  1.0000  -0.6591   0.0000   0.0000   0.0000  -0.0001
   3.800   0.1031   0.03345   0.01933   0.0238  1.0000  1.0000  -0.6676   0.0000   0.0000   0.0000   0.0069
   3.900   0.1089   0.03411   0.02004   0.0230  0.9982  1.0000  -0.6791   0.0000   0.0000   0.0000   0.0270
   4.000   0.1711   0.03666   0.02293   0.0109  0.9600  1.0000  -0.7554   0.0000   0.0000   0.0000   0.1781
   4.100   0.2309   0.03873   0.02534   0.0005  0.9209  1.0000  -0.8320   0.0000   0.0000   0.0000   0.2413
   4.200   0.2668   0.03989   0.02675  -0.0049  0.8905  1.0000  -0.8808   0.0000   0.0000   0.0000   0.2624
   4.300   0.3230   0.04116   0.02839  -0.0128  0.8503  1.0000  -0.9710   0.0000   0.0000   0.0000   0.2841
   4.400   0.3784   0.04193   0.02968  -0.0193  0.8089  1.0000  -1.0871   0.0000   0.0000   0.0000   0.2961
   4.500   0.4486   0.04204   0.03031  -0.0262  0.7591  1.0000  -1.2646   0.0000   0.0000   0.0000   0.3039
   4.600   0.4689   0.04234   0.03078  -0.0265  0.7319  1.0000  -1.3300   0.0000   0.0000   0.0000   0.3021
   4.700   0.4909   0.04261   0.03122  -0.0267  0.7049  1.0000  -1.4003   0.0000   0.0000   0.0000   0.3002
   4.800   0.5380   0.04181   0.03073  -0.0273  0.6641  1.0000  -1.5438   0.0000   0.0000   0.0000   0.2967
   4.900   0.5546   0.04198   0.03101  -0.0263  0.6404  1.0000  -1.6041   0.0000   0.0000   0.0000   0.2933
   5.000   0.5701   0.04211   0.03122  -0.0249  0.6172  1.0000  -1.6627   0.0000   0.0000   0.0000   0.2896
   5.100   0.5839   0.04217   0.03134  -0.0231  0.5938  1.0000  -1.7190   0.0000   0.0000   0.0000   0.2855
   5.200   0.5980   0.04222   0.03143  -0.0213  0.5715  1.0000  -1.7763   0.0000   0.0000   0.0000   0.2816
   5.300   0.5926   0.04361   0.03286  -0.0203  0.5609  1.0000  -1.7673   0.0000   0.0000   0.0000   0.2802
   5.400   0.6053   0.04408   0.03351  -0.0191  0.5436  1.0000  -1.8168   0.0000   0.0000   0.0000   0.2774
   5.500   0.6197   0.04421   0.03365  -0.0173  0.5233  1.0000  -1.8883   0.0000   0.0000   0.0000   0.2737
   5.600   0.6177   0.04538   0.03488  -0.0162  0.5112  1.0000  -1.8929   0.0000   0.0000   0.0000   0.2720
   5.700   0.6265   0.04575   0.03526  -0.0144  0.4930  1.0000  -1.9444   0.0000   0.0000   0.0000   0.2687
   5.800   0.6394   0.04597   0.03547  -0.0126  0.4746  1.0000  -2.0108   0.0000   0.0000   0.0000   0.2654
   5.900   0.6376   0.04747   0.03706  -0.0121  0.4666  1.0000  -2.0090   0.0000   0.0000   0.0000   0.2645
   6.000   0.6520   0.04805   0.03764  -0.0108  0.4531  1.0000  -2.0731   0.0000   0.0000   0.0000   0.2621
   6.100   0.6466   0.04986   0.03953  -0.0105  0.4479  1.0000  -2.0553   0.0000   0.0000   0.0000   0.2618
   6.200   0.6631   0.05000   0.03965  -0.0086  0.4304  1.0000  -2.1415   0.0000   0.0000   0.0000   0.2585
   6.300   0.6562   0.05184   0.04157  -0.0083  0.4257  1.0000  -2.1176   0.0000   0.0000   0.0000   0.2581
   6.400   0.6707   0.05174   0.04144  -0.0060  0.4058  1.0000  -2.2117   0.0000   0.0000   0.0000   0.2544
   6.500   0.6646   0.05351   0.04329  -0.0057  0.4007  1.0000  -2.1913   0.0000   0.0000   0.0000   0.2539
   6.600   0.6825   0.05360   0.04333  -0.0037  0.3838  1.0000  -2.2945   0.0000   0.0000   0.0000   0.2507
   6.700   0.6764   0.05562   0.04544  -0.0037  0.3816  1.0000  -2.2682   0.0000   0.0000   0.0000   0.2507
   6.800   0.6706   0.05762   0.04750  -0.0036  0.3795  1.0000  -2.2442   0.0000   0.0000   0.0000   0.2506
   6.900   0.6651   0.05960   0.04952  -0.0036  0.3776  1.0000  -2.2218   0.0000   0.0000   0.0000   0.2505
   7.000   0.6598   0.06158   0.05152  -0.0036  0.3760  1.0000  -2.2004   0.0000   0.0000   0.0000   0.2506
   7.100   0.6545   0.06356   0.05350  -0.0037  0.3746  1.0000  -2.1791   0.0000   0.0000   0.0000   0.2506
   7.200   0.6491   0.06556   0.05550  -0.0038  0.3736  1.0000  -2.1569   0.0000   0.0000   0.0000   0.2508
   7.300   0.6432   0.06759   0.05751  -0.0040  0.3731  1.0000  -2.1325   0.0000   0.0000   0.0000   0.2511
   7.400   0.6367   0.06965   0.05956  -0.0044  0.3732  1.0000  -2.1049   0.0000   0.0000   0.0000   0.2516
   7.500   0.6293   0.07176   0.06163  -0.0048  0.3740  1.0000  -2.0733   0.0000   0.0000   0.0000   0.2522
   7.600   0.6221   0.07386   0.06369  -0.0052  0.3751  1.0000  -2.0424   0.0000   0.0000   0.0000   0.2530
   7.700   0.6154   0.07592   0.06571  -0.0057  0.3763  1.0000  -2.0135   0.0000   0.0000   0.0000   0.2537
   7.800   0.6090   0.07794   0.06768  -0.0061  0.3777  1.0000  -1.9871   0.0000   0.0000   0.0000   0.2543
   7.900   0.6037   0.07995   0.06965  -0.0065  0.3790  1.0000  -1.9641   0.0000   0.0000   0.0000   0.2550
   8.000   0.5993   0.08193   0.07159  -0.0070  0.3801  1.0000  -1.9444   0.0000   0.0000   0.0000   0.2558
   8.100   0.5956   0.08388   0.07350  -0.0074  0.3809  1.0000  -1.9273   0.0000   0.0000   0.0000   0.2565
   8.200   0.5922   0.08579   0.07538  -0.0078  0.3814  1.0000  -1.9115   0.0000   0.0000   0.0000   0.2572
   8.300   0.5889   0.08765   0.07721  -0.0083  0.3817  1.0000  -1.8964   0.0000   0.0000   0.0000   0.2579
   8.400   0.5856   0.08947   0.07900  -0.0087  0.3818  1.0000  -1.8815   0.0000   0.0000   0.0000   0.2586
   8.500   0.5823   0.09125   0.08075  -0.0091  0.3818  1.0000  -1.8665   0.0000   0.0000   0.0000   0.2593
   8.600   0.5790   0.09299   0.08245  -0.0095  0.3817  1.0000  -1.8518   0.0000   0.0000   0.0000   0.2599
   8.700   0.5759   0.09470   0.08414  -0.0099  0.3814  1.0000  -1.8378   0.0000   0.0000   0.0000   0.2606
   8.800   0.5732   0.09641   0.08582  -0.0103  0.3812  1.0000  -1.8250   0.0000   0.0000   0.0000   0.2613
   8.900   0.5712   0.09814   0.08753  -0.0107  0.3813  1.0000  -1.8140   0.0000   0.0000   0.0000   0.2620
   9.000   0.5707   0.09998   0.08935  -0.0111  0.3818  1.0000  -1.8071   0.0000   0.0000   0.0000   0.2627
   9.100   0.5783   0.10249   0.09191  -0.0117  0.3843  1.0000  -1.8222   0.0000   0.0000   0.0000   0.2635
   9.200   0.5529   0.10571   0.09499  -0.0167  0.4333  1.0000  -1.6842   0.0000   0.0000   0.0000   0.2731
   9.300   0.4257   0.10423   0.09273  -0.0265  0.7275  1.0000  -1.2539   0.0000   0.0000   0.0000   0.3031
   9.400   0.4301   0.10573   0.09427  -0.0269  0.7215  1.0000  -1.2620   0.0000   0.0000   0.0000   0.3033
   9.500   0.4406   0.10836   0.09696  -0.0282  0.7162  1.0000  -1.2794   0.0000   0.0000   0.0000   0.3047
   9.600   0.4512   0.11149   0.10013  -0.0296  0.7123  1.0000  -1.2957   0.0000   0.0000   0.0000   0.3063
   9.700   0.4416   0.11049   0.09910  -0.0278  0.7054  1.0000  -1.2803   0.0000   0.0000   0.0000   0.3036
   9.800   0.4630   0.11493   0.10374  -0.0300  0.6887  1.0000  -1.3158   0.0000   0.0000   0.0000   0.3056
   9.900   0.4530   0.11379   0.10257  -0.0282  0.6808  1.0000  -1.2996   0.0000   0.0000   0.0000   0.3029
  10.000   0.4658   0.11656   0.10539  -0.0289  0.6620  1.0000  -1.3262   0.0000   0.0000   0.0000   0.3028
  10.200   0.4743   0.11937   0.10825  -0.0287  0.6362  1.0000  -1.3518   0.0000   0.0000   0.0000   0.3012
  10.300   0.4777   0.12064   0.10954  -0.0287  0.6272  1.0000  -1.3612   0.0000   0.0000   0.0000   0.3007
  10.400   0.4981   0.12551   0.11450  -0.0307  0.6197  1.0000  -1.4032   0.0000   0.0000   0.0000   0.3024
  10.500   0.4911   0.12524   0.11419  -0.0298  0.6163  1.0000  -1.3895   0.0000   0.0000   0.0000   0.3013
  10.600   0.4869   0.12515   0.11409  -0.0290  0.6078  1.0000  -1.3829   0.0000   0.0000   0.0000   0.3001
  10.700   0.4984   0.12799   0.11698  -0.0298  0.5995  1.0000  -1.4070   0.0000   0.0000   0.0000   0.3004
  10.800   0.5097   0.13158   0.12060  -0.0309  0.5948  1.0000  -1.4284   0.0000   0.0000   0.0000   0.3012
  10.900   0.4991   0.13026   0.11924  -0.0296  0.5888  1.0000  -1.4082   0.0000   0.0000   0.0000   0.2997
  11.000   0.5029   0.13163   0.12064  -0.0296  0.5801  1.0000  -1.4165   0.0000   0.0000   0.0000   0.2993
  11.100   0.5235   0.13698   0.12605  -0.0313  0.5717  1.0000  -1.4562   0.0000   0.0000   0.0000   0.3003
  11.200   0.5120   0.13543   0.12446  -0.0301  0.5672  1.0000  -1.4334   0.0000   0.0000   0.0000   0.2991
  11.300   0.5168   0.13676   0.12581  -0.0299  0.5547  1.0000  -1.4444   0.0000   0.0000   0.0000   0.2982
  11.400   0.5250   0.13954   0.12861  -0.0303  0.5458  1.0000  -1.4603   0.0000   0.0000   0.0000   0.2980
  11.500   0.5215   0.13934   0.12840  -0.0296  0.5353  1.0000  -1.4544   0.0000   0.0000   0.0000   0.2970
  11.600   0.5362   0.14326   0.13236  -0.0302  0.5231  1.0000  -1.4839   0.0000   0.0000   0.0000   0.2966
  11.700   0.5294   0.14251   0.13159  -0.0295  0.5156  1.0000  -1.4698   0.0000   0.0000   0.0000   0.2958
  11.800   0.5449   0.14626   0.13540  -0.0301  0.5046  1.0000  -1.5004   0.0000   0.0000   0.0000   0.2955
  11.900   0.5516   0.14914   0.13828  -0.0306  0.5009  1.0000  -1.5098   0.0000   0.0000   0.0000   0.2957
  12.000   0.5417   0.14776   0.13686  -0.0299  0.4962  1.0000  -1.4885   0.0000   0.0000   0.0000   0.2952
  12.100   0.5424   0.14856   0.13766  -0.0298  0.4888  1.0000  -1.4881   0.0000   0.0000   0.0000   0.2949
  12.200   0.5554   0.15207   0.14123  -0.0303  0.4816  1.0000  -1.5112   0.0000   0.0000   0.0000   0.2947
  12.300   0.5655   0.15584   0.14501  -0.0310  0.4777  1.0000  -1.5261   0.0000   0.0000   0.0000   0.2949
  12.400   0.5552   0.15424   0.14337  -0.0305  0.4740  1.0000  -1.5032   0.0000   0.0000   0.0000   0.2947
  12.500   0.5538   0.15455   0.14367  -0.0303  0.4672  1.0000  -1.4977   0.0000   0.0000   0.0000   0.2945
  12.600   0.5622   0.15705   0.14620  -0.0306  0.4603  1.0000  -1.5113   0.0000   0.0000   0.0000   0.2942
  12.700   0.5820   0.16328   0.15248  -0.0316  0.4549  1.0000  -1.5441   0.0000   0.0000   0.0000   0.2942
  12.800   0.5714   0.16144   0.15060  -0.0312  0.4526  1.0000  -1.5195   0.0000   0.0000   0.0000   0.2943
  12.900   0.5660   0.16077   0.14990  -0.0310  0.4468  1.0000  -1.5055   0.0000   0.0000   0.0000   0.2943
  13.000   0.5711   0.16245   0.15160  -0.0311  0.4389  1.0000  -1.5126   0.0000   0.0000   0.0000   0.2939
  13.100   0.5901   0.16844   0.15764  -0.0317  0.4310  1.0000  -1.5449   0.0000   0.0000   0.0000   0.2934
  13.200   0.5810   0.16680   0.15596  -0.0315  0.4282  1.0000  -1.5224   0.0000   0.0000   0.0000   0.2937
  13.300   0.5777   0.16649   0.15563  -0.0314  0.4215  1.0000  -1.5121   0.0000   0.0000   0.0000   0.2937
  13.400   0.6047   0.17437   0.16359  -0.0318  0.4082  1.0000  -1.5622   0.0000   0.0000   0.0000   0.2922
  13.500   0.5955   0.17263   0.16181  -0.0318  0.4065  1.0000  -1.5384   0.0000   0.0000   0.0000   0.2927
  13.600   0.5889   0.17147   0.16062  -0.0318  0.4020  1.0000  -1.5203   0.0000   0.0000   0.0000   0.2931
  13.700   0.5911   0.17240   0.16155  -0.0318  0.3941  1.0000  -1.5204   0.0000   0.0000   0.0000   0.2929
  13.800   0.6129   0.17917   0.16842  -0.0321  0.3860  1.0000  -1.5578   0.0000   0.0000   0.0000   0.2917
  13.900   0.6126   0.18026   0.16947  -0.0325  0.3841  1.0000  -1.5490   0.0000   0.0000   0.0000   0.2921
  14.000   0.6047   0.17864   0.16780  -0.0326  0.3816  1.0000  -1.5271   0.0000   0.0000   0.0000   0.2928
  14.100   0.6018   0.17834   0.16749  -0.0328  0.3768  1.0000  -1.5154   0.0000   0.0000   0.0000   0.2932
  14.200   0.6047   0.17959   0.16875  -0.0330  0.3713  1.0000  -1.5220   0.0000   0.0000   0.0000   0.2932
  14.300   0.6139   0.18269   0.17199  -0.0331  0.3658  1.0000  -1.5439   0.0000   0.0000   0.0000   0.2927
  14.400   0.6335   0.19022   0.17957  -0.0337  0.3616  1.0000  -1.5902   0.0000   0.0000   0.0000   0.2919
  14.500   0.6254   0.18828   0.17759  -0.0339  0.3603  1.0000  -1.5660   0.0000   0.0000   0.0000   0.2928
  14.600   0.6193   0.18688   0.17615  -0.0342  0.3575  1.0000  -1.5471   0.0000   0.0000   0.0000   0.2936
  14.700   0.6180   0.18690   0.17616  -0.0345  0.3528  1.0000  -1.5409   0.0000   0.0000   0.0000   0.2941
  14.800   0.6212   0.18825   0.17751  -0.0347  0.3478  1.0000  -1.5469   0.0000   0.0000   0.0000   0.2941
  14.900   0.6295   0.19123   0.18052  -0.0349  0.3428  1.0000  -1.5670   0.0000   0.0000   0.0000   0.2936
  15.000   0.6509   0.19997   0.18932  -0.0352  0.3383  1.0000  -1.6176   0.0000   0.0000   0.0000   0.2925


