xflr5 v6.61

 Calculated polar for: SD8020-010-88

 1 1 Reynolds number fixed          Mach number fixed         

 xtrf =   1.000 (top)        1.000 (bottom)
 Mach =   0.000     Re =     0.050 e 6     Ncrit =   9.000

  alpha     CL        CD       CDp       Cm    Top Xtr Bot Xtr   Cpmin    Chinge    XCp    
 ------- -------- --------- --------- -------- ------- ------- -------- --------- ---------
 -10.000  -0.6518   0.09209   0.08490  -0.0143  1.0000  0.1500  -2.5229   0.0000   0.0000   0.0000   0.2202
  -9.900  -0.6539   0.08966   0.08248  -0.0151  1.0000  0.1487  -2.5498   0.0000   0.0000   0.0000   0.2191
  -9.800  -0.6583   0.08698   0.07983  -0.0164  1.0000  0.1471  -2.5900   0.0000   0.0000   0.0000   0.2174
  -9.600  -0.7598   0.07644   0.06941  -0.0258  1.0000  0.1314  -3.1594   0.0000   0.0000   0.0000   0.2087
  -9.500  -0.7616   0.07414   0.06710  -0.0257  1.0000  0.1309  -3.1723   0.0000   0.0000   0.0000   0.2089
  -9.400  -0.7651   0.07200   0.06493  -0.0256  1.0000  0.1304  -3.1937   0.0000   0.0000   0.0000   0.2093
  -9.300  -0.7694   0.06993   0.06284  -0.0253  1.0000  0.1300  -3.2175   0.0000   0.0000   0.0000   0.2098
  -9.200  -0.7740   0.06792   0.06078  -0.0250  1.0000  0.1296  -3.2428   0.0000   0.0000   0.0000   0.2105
  -9.100  -0.7788   0.06594   0.05874  -0.0247  1.0000  0.1292  -3.2688   0.0000   0.0000   0.0000   0.2112
  -9.000  -0.7836   0.06399   0.05672  -0.0242  1.0000  0.1289  -3.2949   0.0000   0.0000   0.0000   0.2120
  -8.900  -0.7881   0.06206   0.05471  -0.0237  1.0000  0.1287  -3.3207   0.0000   0.0000   0.0000   0.2129
  -8.800  -0.7922   0.06016   0.05271  -0.0231  1.0000  0.1285  -3.3456   0.0000   0.0000   0.0000   0.2139
  -8.700  -0.7959   0.05830   0.05073  -0.0224  1.0000  0.1285  -3.3693   0.0000   0.0000   0.0000   0.2149
  -8.600  -0.7991   0.05647   0.04876  -0.0217  1.0000  0.1285  -3.3915   0.0000   0.0000   0.0000   0.2160
  -8.500  -0.8018   0.05468   0.04682  -0.0209  1.0000  0.1287  -3.4120   0.0000   0.0000   0.0000   0.2171
  -8.400  -0.8037   0.05294   0.04491  -0.0200  1.0000  0.1290  -3.4304   0.0000   0.0000   0.0000   0.2183
  -8.300  -0.8051   0.05125   0.04303  -0.0191  1.0000  0.1295  -3.4467   0.0000   0.0000   0.0000   0.2196
  -8.200  -0.8058   0.04963   0.04121  -0.0181  1.0000  0.1301  -3.4608   0.0000   0.0000   0.0000   0.2208
  -8.100  -0.8059   0.04811   0.03946  -0.0171  1.0000  0.1308  -3.4725   0.0000   0.0000   0.0000   0.2222
  -8.000  -0.8056   0.04675   0.03782  -0.0160  1.0000  0.1317  -3.4815   0.0000   0.0000   0.0000   0.2236
  -7.900  -0.8021   0.04461   0.03570  -0.0154  1.0000  0.1336  -3.4657   0.0000   0.0000   0.0000   0.2242
  -7.800  -0.7948   0.04360   0.03481  -0.0150  1.0000  0.1377  -3.4034   0.0000   0.0000   0.0000   0.2247
  -7.700  -0.7870   0.04315   0.03443  -0.0144  1.0000  0.1436  -3.3367   0.0000   0.0000   0.0000   0.2253
  -7.600  -0.7840   0.04221   0.03332  -0.0135  1.0000  0.1484  -3.3159   0.0000   0.0000   0.0000   0.2266
  -7.500  -0.7825   0.04115   0.03195  -0.0122  1.0000  0.1522  -3.3131   0.0000   0.0000   0.0000   0.2282
  -7.400  -0.7794   0.03974   0.03040  -0.0113  1.0000  0.1560  -3.2968   0.0000   0.0000   0.0000   0.2293
  -7.300  -0.7715   0.03883   0.02964  -0.0109  1.0000  0.1615  -3.2322   0.0000   0.0000   0.0000   0.2299
  -7.200  -0.7649   0.03788   0.02853  -0.0101  1.0000  0.1664  -3.1920   0.0000   0.0000   0.0000   0.2308
  -7.100  -0.7599   0.03677   0.02723  -0.0092  1.0000  0.1711  -3.1705   0.0000   0.0000   0.0000   0.2320
  -7.000  -0.7558   0.03570   0.02582  -0.0080  1.0000  0.1757  -3.1591   0.0000   0.0000   0.0000   0.2335
  -6.900  -0.7484   0.03471   0.02501  -0.0075  1.0000  0.1830  -3.0961   0.0000   0.0000   0.0000   0.2342
  -6.800  -0.7418   0.03431   0.02463  -0.0067  1.0000  0.1924  -3.0358   0.0000   0.0000   0.0000   0.2353
  -6.700  -0.7380   0.03357   0.02359  -0.0055  1.0000  0.2002  -3.0117   0.0000   0.0000   0.0000   0.2369
  -6.600  -0.7293   0.03278   0.02305  -0.0051  1.0000  0.2087  -2.9369   0.0000   0.0000   0.0000   0.2375
  -6.500  -0.7225   0.03201   0.02216  -0.0042  1.0000  0.2167  -2.8927   0.0000   0.0000   0.0000   0.2387
  -6.400  -0.7164   0.03104   0.02098  -0.0033  1.0000  0.2240  -2.8587   0.0000   0.0000   0.0000   0.2399
  -6.300  -0.7076   0.03036   0.02048  -0.0028  1.0000  0.2327  -2.7881   0.0000   0.0000   0.0000   0.2407
  -6.200  -0.7021   0.02986   0.01979  -0.0018  1.0000  0.2438  -2.7416   0.0000   0.0000   0.0000   0.2422
  -6.100  -0.6943   0.02930   0.01943  -0.0011  1.0000  0.2547  -2.6697   0.0000   0.0000   0.0000   0.2432
  -6.000  -0.6882   0.02879   0.01878  -0.0002  1.0000  0.2664  -2.6197   0.0000   0.0000   0.0000   0.2447
  -5.900  -0.6798   0.02811   0.01824   0.0005  1.0000  0.2767  -2.5531   0.0000   0.0000   0.0000   0.2457
  -5.800  -0.6726   0.02751   0.01756   0.0013  1.0000  0.2879  -2.4991   0.0000   0.0000   0.0000   0.2470
  -5.700  -0.6642   0.02683   0.01694   0.0019  1.0000  0.2987  -2.4363   0.0000   0.0000   0.0000   0.2481
  -5.600  -0.6569   0.02630   0.01636   0.0028  1.0000  0.3113  -2.3789   0.0000   0.0000   0.0000   0.2494
  -5.500  -0.6491   0.02580   0.01599   0.0035  1.0000  0.3245  -2.3122   0.0000   0.0000   0.0000   0.2507
  -5.400  -0.6430   0.02536   0.01549   0.0045  1.0000  0.3401  -2.2568   0.0000   0.0000   0.0000   0.2524
  -5.300  -0.6354   0.02498   0.01525   0.0054  1.0000  0.3553  -2.1937   0.0000   0.0000   0.0000   0.2540
  -5.200  -0.6280   0.02454   0.01490   0.0063  1.0000  0.3708  -2.1410   0.0000   0.0000   0.0000   0.2556
  -5.100  -0.6212   0.02408   0.01442   0.0072  1.0000  0.3875  -2.0939   0.0000   0.0000   0.0000   0.2572
  -5.000  -0.6135   0.02367   0.01410   0.0081  1.0000  0.4039  -2.0404   0.0000   0.0000   0.0000   0.2589
  -4.900  -0.6057   0.02326   0.01380   0.0090  1.0000  0.4206  -1.9859   0.0000   0.0000   0.0000   0.2607
  -4.800  -0.5987   0.02290   0.01351   0.0101  1.0000  0.4392  -1.9368   0.0000   0.0000   0.0000   0.2626
  -4.700  -0.5921   0.02257   0.01314   0.0112  1.0000  0.4589  -1.8961   0.0000   0.0000   0.0000   0.2647
  -4.600  -0.5857   0.02226   0.01288   0.0123  1.0000  0.4792  -1.8559   0.0000   0.0000   0.0000   0.2670
  -4.500  -0.5783   0.02198   0.01273   0.0134  1.0000  0.4988  -1.8113   0.0000   0.0000   0.0000   0.2693
  -4.400  -0.5707   0.02171   0.01258   0.0146  1.0000  0.5185  -1.7666   0.0000   0.0000   0.0000   0.2717
  -4.300  -0.5635   0.02147   0.01244   0.0158  1.0000  0.5389  -1.7227   0.0000   0.0000   0.0000   0.2742
  -4.200  -0.5564   0.02126   0.01232   0.0171  1.0000  0.5598  -1.6793   0.0000   0.0000   0.0000   0.2769
  -4.100  -0.5493   0.02106   0.01220   0.0184  1.0000  0.5810  -1.6359   0.0000   0.0000   0.0000   0.2798
  -4.000  -0.5422   0.02089   0.01210   0.0197  1.0000  0.6023  -1.5927   0.0000   0.0000   0.0000   0.2827
  -3.900  -0.5351   0.02073   0.01201   0.0211  1.0000  0.6237  -1.5497   0.0000   0.0000   0.0000   0.2858
  -3.800  -0.5281   0.02060   0.01194   0.0225  1.0000  0.6452  -1.5068   0.0000   0.0000   0.0000   0.2891
  -3.700  -0.5212   0.02050   0.01188   0.0240  1.0000  0.6669  -1.4642   0.0000   0.0000   0.0000   0.2926
  -3.600  -0.5133   0.02045   0.01189   0.0254  1.0000  0.6879  -1.4186   0.0000   0.0000   0.0000   0.2962
  -3.500  -0.5041   0.02045   0.01195   0.0268  1.0000  0.7082  -1.3699   0.0000   0.0000   0.0000   0.2998
  -3.400  -0.4945   0.02048   0.01202   0.0281  1.0000  0.7285  -1.3206   0.0000   0.0000   0.0000   0.3036
  -3.300  -0.4842   0.02055   0.01210   0.0294  1.0000  0.7490  -1.2701   0.0000   0.0000   0.0000   0.3074
  -3.200  -0.4728   0.02064   0.01220   0.0304  1.0000  0.7695  -1.2174   0.0000   0.0000   0.0000   0.3111
  -3.100  -0.4599   0.02076   0.01230   0.0312  1.0000  0.7899  -1.1618   0.0000   0.0000   0.0000   0.3145
  -3.000  -0.4452   0.02092   0.01243   0.0316  1.0000  0.8104  -1.1047   0.0000   0.0000   0.0000   0.3177
  -2.900  -0.4283   0.02113   0.01250   0.0316  1.0000  0.8310  -1.0542   0.0000   0.0000   0.0000   0.3206
  -2.800  -0.3962   0.02163   0.01287   0.0292  1.0000  0.8504  -0.9921   0.0000   0.0000   0.0000   0.3206
  -2.700  -0.3544   0.02219   0.01326   0.0251  1.0000  0.8687  -0.9241   0.0000   0.0000   0.0000   0.3174
  -2.600  -0.3105   0.02261   0.01348   0.0201  1.0000  0.8862  -0.8551   0.0000   0.0000   0.0000   0.3111
  -2.500  -0.2738   0.02278   0.01350   0.0158  1.0000  0.9036  -0.7973   0.0000   0.0000   0.0000   0.3042
  -2.400  -0.2294   0.02288   0.01342   0.0101  1.0000  0.9197  -0.7309   0.0000   0.0000   0.0000   0.2899
  -2.300  -0.1875   0.02278   0.01312   0.0044  1.0000  0.9345  -0.6735   0.0000   0.0000   0.0000   0.2691
  -2.200  -0.1559   0.02261   0.01284   0.0003  1.0000  0.9500  -0.6333   0.0000   0.0000   0.0000   0.2472
  -2.100  -0.1167   0.02228   0.01240  -0.0053  1.0000  0.9647  -0.5860   0.0000   0.0000   0.0000   0.1984
  -2.000  -0.0782   0.02180   0.01181  -0.0111  1.0000  0.9783  -0.5404   0.0000   0.0000   0.0000   0.1006
  -1.900  -0.0409   0.02129   0.01121  -0.0168  1.0000  0.9923  -0.4991   0.0000   0.0000   0.0000  -0.1757
  -1.800  -0.0165   0.02080   0.01066  -0.0204  1.0000  1.0000  -0.4735   0.0000   0.0000   0.0000  -1.0164
  -1.700  -0.0143   0.02055   0.01040  -0.0197  1.0000  1.0000  -0.4666   0.0000   0.0000   0.0000  -1.1664
  -1.600  -0.0121   0.02030   0.01016  -0.0190  1.0000  1.0000  -0.4597   0.0000   0.0000   0.0000  -1.3548
  -1.500  -0.0101   0.02008   0.00993  -0.0182  1.0000  1.0000  -0.4527   0.0000   0.0000   0.0000  -1.5994
  -1.400  -0.0081   0.01987   0.00973  -0.0174  1.0000  1.0000  -0.4457   0.0000   0.0000   0.0000  -1.9336
  -1.300  -0.0063   0.01967   0.00952  -0.0165  1.0000  1.0000  -0.4387   0.0000   0.0000   0.0000  -2.4244
  -1.200  -0.0046   0.01949   0.00934  -0.0156  1.0000  1.0000  -0.4321   0.0000   0.0000   0.0000  -3.2342
  -1.100  -0.0030   0.01932   0.00918  -0.0146  1.0000  1.0000  -0.4264   0.0000   0.0000   0.0000  -4.8002
  -1.000  -0.0015   0.01916   0.00903  -0.0136  1.0000  1.0000  -0.4207   0.0000   0.0000   0.0000  -8.9545
  -0.900  -0.0002   0.01902   0.00890  -0.0125  1.0000  1.0000  -0.4151   0.0000   0.0000   0.0000  -51.0549
  -0.800   0.0008   0.01890   0.00879  -0.0113  1.0000  1.0000  -0.4096   0.0000   0.0000   0.0000  14.7903
  -0.700   0.0016   0.01878   0.00868  -0.0101  1.0000  1.0000  -0.4041   0.0000   0.0000   0.0000   6.6920
  -0.600   0.0021   0.01869   0.00859  -0.0088  1.0000  1.0000  -0.3988   0.0000   0.0000   0.0000   4.4563
  -0.500   0.0024   0.01860   0.00852  -0.0075  1.0000  1.0000  -0.3937   0.0000   0.0000   0.0000   3.4291
  -0.400   0.0024   0.01853   0.00846  -0.0061  1.0000  1.0000  -0.3887   0.0000   0.0000   0.0000   2.8636
  -0.300   0.0021   0.01848   0.00841  -0.0046  1.0000  1.0000  -0.3839   0.0000   0.0000   0.0000   2.5288
  -0.200   0.0015   0.01844   0.00838  -0.0031  1.0000  1.0000  -0.3798   0.0000   0.0000   0.0000   2.3361
  -0.100   0.0008   0.01842   0.00836  -0.0016  1.0000  1.0000  -0.3760   0.0000   0.0000   0.0000   2.2661
   0.000  -0.0000   0.01841   0.00835   0.0000  1.0000  1.0000  -0.3723   0.0000   0.0000   0.0000   0.3520
   0.100  -0.0009   0.01842   0.00836   0.0016  1.0000  1.0000  -0.3759   0.0000   0.0000   0.0000   2.0999
   0.200  -0.0016   0.01844   0.00838   0.0031  1.0000  1.0000  -0.3797   0.0000   0.0000   0.0000   2.2464
   0.300  -0.0021   0.01848   0.00841   0.0046  1.0000  1.0000  -0.3837   0.0000   0.0000   0.0000   2.4605
   0.400  -0.0024   0.01853   0.00846   0.0061  1.0000  1.0000  -0.3886   0.0000   0.0000   0.0000   2.8017
   0.500  -0.0025   0.01860   0.00852   0.0075  1.0000  1.0000  -0.3936   0.0000   0.0000   0.0000   3.3645
   0.600  -0.0022   0.01868   0.00859   0.0088  1.0000  1.0000  -0.3987   0.0000   0.0000   0.0000   4.3776
   0.700  -0.0016   0.01878   0.00868   0.0101  1.0000  1.0000  -0.4040   0.0000   0.0000   0.0000   6.5720
   0.800  -0.0008   0.01889   0.00878   0.0113  1.0000  1.0000  -0.4095   0.0000   0.0000   0.0000  14.4529
   0.900   0.0002   0.01902   0.00890   0.0125  1.0000  1.0000  -0.4150   0.0000   0.0000   0.0000  -52.4708
   1.000   0.0015   0.01916   0.00903   0.0136  1.0000  1.0000  -0.4206   0.0000   0.0000   0.0000  -8.9172
   1.100   0.0030   0.01931   0.00918   0.0146  1.0000  1.0000  -0.4263   0.0000   0.0000   0.0000  -4.7676
   1.200   0.0046   0.01948   0.00934   0.0156  1.0000  1.0000  -0.4321   0.0000   0.0000   0.0000  -3.2098
   1.300   0.0064   0.01966   0.00952   0.0165  1.0000  1.0000  -0.4390   0.0000   0.0000   0.0000  -2.4057
   1.400   0.0082   0.01986   0.00972   0.0174  1.0000  1.0000  -0.4460   0.0000   0.0000   0.0000  -1.9186
   1.500   0.0101   0.02007   0.00993   0.0182  1.0000  1.0000  -0.4530   0.0000   0.0000   0.0000  -1.5870
   1.600   0.0122   0.02030   0.01015   0.0190  1.0000  1.0000  -0.4600   0.0000   0.0000   0.0000  -1.3443
   1.700   0.0143   0.02054   0.01039   0.0197  1.0000  1.0000  -0.4669   0.0000   0.0000   0.0000  -1.1573
   1.800   0.0166   0.02080   0.01065   0.0204  1.0000  1.0000  -0.4738   0.0000   0.0000   0.0000  -1.0084
   1.900   0.0405   0.02128   0.01119   0.0169  0.9925  1.0000  -0.4990   0.0000   0.0000   0.0000  -0.1816
   2.000   0.0779   0.02179   0.01180   0.0111  0.9785  1.0000  -0.5397   0.0000   0.0000   0.0000   0.0990
   2.100   0.1165   0.02227   0.01239   0.0054  0.9649  1.0000  -0.5855   0.0000   0.0000   0.0000   0.1980
   2.200   0.1554   0.02260   0.01283  -0.0002  0.9501  1.0000  -0.6324   0.0000   0.0000   0.0000   0.2466
   2.300   0.1872   0.02277   0.01311  -0.0044  0.9347  1.0000  -0.6728   0.0000   0.0000   0.0000   0.2688
   2.400   0.2294   0.02287   0.01341  -0.0101  0.9198  1.0000  -0.7307   0.0000   0.0000   0.0000   0.2898
   2.500   0.2732   0.02278   0.01350  -0.0157  0.9037  1.0000  -0.7963   0.0000   0.0000   0.0000   0.3039
   2.600   0.3100   0.02261   0.01348  -0.0200  0.8864  1.0000  -0.8543   0.0000   0.0000   0.0000   0.3109
   2.700   0.3543   0.02219   0.01326  -0.0250  0.8689  1.0000  -0.9237   0.0000   0.0000   0.0000   0.3174
   2.800   0.3963   0.02162   0.01287  -0.0293  0.8506  1.0000  -0.9921   0.0000   0.0000   0.0000   0.3206
   2.900   0.4279   0.02114   0.01251  -0.0315  0.8312  1.0000  -1.0546   0.0000   0.0000   0.0000   0.3205
   3.000   0.4449   0.02093   0.01243  -0.0315  0.8106  1.0000  -1.1054   0.0000   0.0000   0.0000   0.3177
   3.100   0.4598   0.02077   0.01230  -0.0311  0.7901  1.0000  -1.1609   0.0000   0.0000   0.0000   0.3145
   3.200   0.4728   0.02064   0.01220  -0.0304  0.7697  1.0000  -1.2167   0.0000   0.0000   0.0000   0.3111
   3.300   0.4842   0.02055   0.01210  -0.0294  0.7491  1.0000  -1.2695   0.0000   0.0000   0.0000   0.3074
   3.400   0.4945   0.02048   0.01201  -0.0281  0.7286  1.0000  -1.3201   0.0000   0.0000   0.0000   0.3036
   3.500   0.5041   0.02045   0.01195  -0.0268  0.7083  1.0000  -1.3694   0.0000   0.0000   0.0000   0.2998
   3.600   0.5133   0.02045   0.01189  -0.0255  0.6880  1.0000  -1.4181   0.0000   0.0000   0.0000   0.2962
   3.700   0.5212   0.02050   0.01188  -0.0240  0.6669  1.0000  -1.4635   0.0000   0.0000   0.0000   0.2926
   3.800   0.5281   0.02060   0.01194  -0.0225  0.6453  1.0000  -1.5061   0.0000   0.0000   0.0000   0.2891
   3.900   0.5351   0.02073   0.01200  -0.0211  0.6237  1.0000  -1.5490   0.0000   0.0000   0.0000   0.2858
   4.000   0.5421   0.02088   0.01210  -0.0197  0.6023  1.0000  -1.5920   0.0000   0.0000   0.0000   0.2827
   4.100   0.5492   0.02106   0.01220  -0.0184  0.5810  1.0000  -1.6352   0.0000   0.0000   0.0000   0.2798
   4.200   0.5563   0.02125   0.01231  -0.0171  0.5599  1.0000  -1.6786   0.0000   0.0000   0.0000   0.2769
   4.300   0.5635   0.02147   0.01244  -0.0158  0.5390  1.0000  -1.7221   0.0000   0.0000   0.0000   0.2742
   4.400   0.5707   0.02171   0.01258  -0.0146  0.5186  1.0000  -1.7660   0.0000   0.0000   0.0000   0.2717
   4.500   0.5783   0.02198   0.01273  -0.0135  0.4989  1.0000  -1.8107   0.0000   0.0000   0.0000   0.2693
   4.600   0.5857   0.02226   0.01289  -0.0123  0.4793  1.0000  -1.8552   0.0000   0.0000   0.0000   0.2670
   4.700   0.5921   0.02257   0.01315  -0.0112  0.4589  1.0000  -1.8954   0.0000   0.0000   0.0000   0.2648
   4.800   0.5987   0.02290   0.01352  -0.0101  0.4392  1.0000  -1.9361   0.0000   0.0000   0.0000   0.2626
   4.900   0.6057   0.02326   0.01380  -0.0090  0.4207  1.0000  -1.9840   0.0000   0.0000   0.0000   0.2607
   5.000   0.6135   0.02366   0.01409  -0.0081  0.4040  1.0000  -2.0384   0.0000   0.0000   0.0000   0.2589
   5.100   0.6212   0.02407   0.01441  -0.0072  0.3875  1.0000  -2.0919   0.0000   0.0000   0.0000   0.2572
   5.200   0.6280   0.02453   0.01489  -0.0063  0.3708  1.0000  -2.1391   0.0000   0.0000   0.0000   0.2556
   5.300   0.6354   0.02498   0.01525  -0.0054  0.3553  1.0000  -2.1917   0.0000   0.0000   0.0000   0.2539
   5.400   0.6429   0.02536   0.01548  -0.0045  0.3400  1.0000  -2.2554   0.0000   0.0000   0.0000   0.2524
   5.500   0.6491   0.02580   0.01598  -0.0035  0.3244  1.0000  -2.3106   0.0000   0.0000   0.0000   0.2507
   5.600   0.6569   0.02630   0.01636  -0.0027  0.3112  1.0000  -2.3770   0.0000   0.0000   0.0000   0.2494
   5.700   0.6642   0.02683   0.01694  -0.0019  0.2985  1.0000  -2.4347   0.0000   0.0000   0.0000   0.2481
   5.800   0.6725   0.02752   0.01756  -0.0013  0.2877  1.0000  -2.4970   0.0000   0.0000   0.0000   0.2470
   5.900   0.6798   0.02811   0.01823  -0.0005  0.2764  1.0000  -2.5515   0.0000   0.0000   0.0000   0.2457
   6.000   0.6881   0.02878   0.01878   0.0002  0.2661  1.0000  -2.6171   0.0000   0.0000   0.0000   0.2447
   6.100   0.6942   0.02928   0.01941   0.0011  0.2543  1.0000  -2.6683   0.0000   0.0000   0.0000   0.2432
   6.200   0.7019   0.02985   0.01979   0.0018  0.2434  1.0000  -2.7387   0.0000   0.0000   0.0000   0.2422
   6.300   0.7075   0.03034   0.02045   0.0028  0.2323  1.0000  -2.7865   0.0000   0.0000   0.0000   0.2407
   6.400   0.7164   0.03106   0.02098   0.0033  0.2237  1.0000  -2.8575   0.0000   0.0000   0.0000   0.2400
   6.500   0.7224   0.03201   0.02217   0.0043  0.2164  1.0000  -2.8900   0.0000   0.0000   0.0000   0.2387
   6.600   0.7292   0.03278   0.02304   0.0051  0.2085  1.0000  -2.9351   0.0000   0.0000   0.0000   0.2375
   6.700   0.7381   0.03361   0.02361   0.0055  0.2000  1.0000  -3.0099   0.0000   0.0000   0.0000   0.2369
   6.800   0.7418   0.03433   0.02465   0.0067  0.1923  1.0000  -3.0332   0.0000   0.0000   0.0000   0.2353
   6.900   0.7484   0.03472   0.02502   0.0075  0.1829  1.0000  -3.0940   0.0000   0.0000   0.0000   0.2342
   7.000   0.7558   0.03571   0.02583   0.0080  0.1757  1.0000  -3.1567   0.0000   0.0000   0.0000   0.2335
   7.100   0.7598   0.03678   0.02723   0.0092  0.1711  1.0000  -3.1686   0.0000   0.0000   0.0000   0.2320
   7.200   0.7649   0.03789   0.02854   0.0101  0.1664  1.0000  -3.1904   0.0000   0.0000   0.0000   0.2308
   7.300   0.7715   0.03885   0.02967   0.0109  0.1616  1.0000  -3.2299   0.0000   0.0000   0.0000   0.2299
   7.400   0.7793   0.03975   0.03043   0.0113  0.1563  1.0000  -3.2926   0.0000   0.0000   0.0000   0.2293
   7.500   0.7828   0.04120   0.03199   0.0122  0.1525  1.0000  -3.3126   0.0000   0.0000   0.0000   0.2282
   7.600   0.7842   0.04226   0.03337   0.0134  0.1488  1.0000  -3.3144   0.0000   0.0000   0.0000   0.2267
   7.700   0.7869   0.04324   0.03453   0.0144  0.1442  1.0000  -3.3322   0.0000   0.0000   0.0000   0.2254
   7.800   0.7942   0.04373   0.03497   0.0151  0.1383  1.0000  -3.3944   0.0000   0.0000   0.0000   0.2246
   7.900   0.8020   0.04460   0.03570   0.0155  0.1339  1.0000  -3.4624   0.0000   0.0000   0.0000   0.2242
   8.000   0.8059   0.04676   0.03786   0.0159  0.1318  1.0000  -3.4825   0.0000   0.0000   0.0000   0.2237
   8.100   0.8062   0.04813   0.03946   0.0170  0.1309  1.0000  -3.4738   0.0000   0.0000   0.0000   0.2222
   8.200   0.8061   0.04964   0.04120   0.0181  0.1302  1.0000  -3.4622   0.0000   0.0000   0.0000   0.2209
   8.300   0.8055   0.05125   0.04303   0.0191  0.1296  1.0000  -3.4483   0.0000   0.0000   0.0000   0.2196
   8.400   0.8041   0.05294   0.04490   0.0200  0.1291  1.0000  -3.4321   0.0000   0.0000   0.0000   0.2184
   8.500   0.8022   0.05468   0.04682   0.0209  0.1288  1.0000  -3.4138   0.0000   0.0000   0.0000   0.2172
   8.600   0.7996   0.05647   0.04876   0.0217  0.1286  1.0000  -3.3935   0.0000   0.0000   0.0000   0.2161
   8.700   0.7964   0.05830   0.05072   0.0224  0.1285  1.0000  -3.3714   0.0000   0.0000   0.0000   0.2150
   8.800   0.7927   0.06016   0.05270   0.0231  0.1286  1.0000  -3.3478   0.0000   0.0000   0.0000   0.2140
   8.900   0.7886   0.06206   0.05470   0.0237  0.1288  1.0000  -3.3230   0.0000   0.0000   0.0000   0.2130
   9.000   0.7842   0.06399   0.05672   0.0242  0.1290  1.0000  -3.2974   0.0000   0.0000   0.0000   0.2121
   9.100   0.7796   0.06595   0.05874   0.0246  0.1293  1.0000  -3.2715   0.0000   0.0000   0.0000   0.2113
   9.200   0.7748   0.06793   0.06078   0.0250  0.1297  1.0000  -3.2457   0.0000   0.0000   0.0000   0.2106
   9.300   0.7702   0.06995   0.06285   0.0253  0.1300  1.0000  -3.2206   0.0000   0.0000   0.0000   0.2099
   9.400   0.7661   0.07202   0.06495   0.0255  0.1305  1.0000  -3.1970   0.0000   0.0000   0.0000   0.2094
   9.500   0.7627   0.07418   0.06713   0.0256  0.1309  1.0000  -3.1760   0.0000   0.0000   0.0000   0.2090
   9.600   0.7612   0.07650   0.06946   0.0257  0.1314  1.0000  -3.1657   0.0000   0.0000   0.0000   0.2088
   9.800   0.6592   0.08700   0.07985   0.0163  0.1472  1.0000  -2.5919   0.0000   0.0000   0.0000   0.2175
   9.900   0.6550   0.08967   0.08249   0.0151  0.1488  1.0000  -2.5525   0.0000   0.0000   0.0000   0.2192
  10.000   0.6530   0.09210   0.08490   0.0143  0.1501  1.0000  -2.5264   0.0000   0.0000   0.0000   0.2203
  10.100   0.6533   0.09435   0.08715   0.0138  0.1513  1.0000  -2.5135   0.0000   0.0000   0.0000   0.2209
  10.200   0.6568   0.09645   0.08925   0.0140  0.1525  1.0000  -2.5178   0.0000   0.0000   0.0000   0.2208
  10.300   0.6667   0.09834   0.09127   0.0151  0.1535  1.0000  -2.5554   0.0000   0.0000   0.0000   0.2193
  10.400   0.6445   0.10596   0.09875   0.0082  0.1779  1.0000  -2.3066   0.0000   0.0000   0.0000   0.2295
  10.500   0.5895   0.12097   0.11355  -0.0090  0.2908  1.0000  -1.7830   0.0000   0.0000   0.0000   0.2576
  10.600   0.5773   0.12124   0.11375  -0.0100  0.2895  1.0000  -1.7395   0.0000   0.0000   0.0000   0.2593
  10.700   0.5663   0.12152   0.11397  -0.0108  0.2863  1.0000  -1.7014   0.0000   0.0000   0.0000   0.2609
  10.800   0.5633   0.12232   0.11476  -0.0110  0.2805  1.0000  -1.6907   0.0000   0.0000   0.0000   0.2614
  10.900   0.5706   0.12394   0.11640  -0.0107  0.2750  1.0000  -1.7138   0.0000   0.0000   0.0000   0.2605
  11.000   0.5815   0.12628   0.11878  -0.0103  0.2722  1.0000  -1.7446   0.0000   0.0000   0.0000   0.2595
  11.100   0.6109   0.13165   0.12428  -0.0090  0.2693  1.0000  -1.8287   0.0000   0.0000   0.0000   0.2567
  11.200   0.6089   0.13354   0.12612  -0.0096  0.2683  1.0000  -1.8135   0.0000   0.0000   0.0000   0.2576
  11.300   0.5923   0.13294   0.12543  -0.0109  0.2673  1.0000  -1.7565   0.0000   0.0000   0.0000   0.2600
  11.400   0.5759   0.13218   0.12461  -0.0121  0.2640  1.0000  -1.7011   0.0000   0.0000   0.0000   0.2624
  11.500   0.5715   0.13289   0.12529  -0.0127  0.2598  1.0000  -1.6829   0.0000   0.0000   0.0000   0.2634
  11.600   0.5726   0.13419   0.12659  -0.0129  0.2562  1.0000  -1.6821   0.0000   0.0000   0.0000   0.2637
  11.700   0.5774   0.13583   0.12824  -0.0129  0.2528  1.0000  -1.6931   0.0000   0.0000   0.0000   0.2634
  11.800   0.5878   0.13814   0.13058  -0.0125  0.2496  1.0000  -1.7217   0.0000   0.0000   0.0000   0.2624
  11.900   0.6179   0.14400   0.13657  -0.0110  0.2463  1.0000  -1.8058   0.0000   0.0000   0.0000   0.2591
  12.000   0.6200   0.14660   0.13913  -0.0114  0.2453  1.0000  -1.8003   0.0000   0.0000   0.0000   0.2596
  12.100   0.6054   0.14583   0.13830  -0.0128  0.2444  1.0000  -1.7487   0.0000   0.0000   0.0000   0.2621
  12.200   0.5905   0.14487   0.13727  -0.0141  0.2423  1.0000  -1.6966   0.0000   0.0000   0.0000   0.2646
  12.300   0.5835   0.14500   0.13737  -0.0149  0.2386  1.0000  -1.6682   0.0000   0.0000   0.0000   0.2661
  12.400   0.5831   0.14606   0.13842  -0.0153  0.2350  1.0000  -1.6602   0.0000   0.0000   0.0000   0.2668
  12.500   0.5860   0.14750   0.13987  -0.0155  0.2316  1.0000  -1.6628   0.0000   0.0000   0.0000   0.2668
  12.600   0.5926   0.14940   0.14178  -0.0154  0.2284  1.0000  -1.6769   0.0000   0.0000   0.0000   0.2663
  12.800   0.6258   0.15829   0.15077  -0.0139  0.2220  1.0000  -1.7946   0.0000   0.0000   0.0000   0.2627
  12.900   0.6157   0.15787   0.15030  -0.0152  0.2213  1.0000  -1.7499   0.0000   0.0000   0.0000   0.2649
  13.000   0.6056   0.15731   0.14969  -0.0164  0.2199  1.0000  -1.7054   0.0000   0.0000   0.0000   0.2671
  13.100   0.5980   0.15708   0.14943  -0.0174  0.2171  1.0000  -1.6714   0.0000   0.0000   0.0000   0.2690
  13.200   0.5962   0.15775   0.15008  -0.0180  0.2130  1.0000  -1.6613   0.0000   0.0000   0.0000   0.2699
  13.300   0.6002   0.15911   0.15145  -0.0180  0.2078  1.0000  -1.6780   0.0000   0.0000   0.0000   0.2697
  13.400   0.6418   0.16834   0.16088  -0.0148  0.1992  1.0000  -1.8466   0.0000   0.0000   0.0000   0.2631
  13.500   0.6318   0.16773   0.16023  -0.0162  0.1987  1.0000  -1.7997   0.0000   0.0000   0.0000   0.2655
  13.600   0.6218   0.16697   0.15942  -0.0176  0.1978  1.0000  -1.7533   0.0000   0.0000   0.0000   0.2679
  13.700   0.6133   0.16633   0.15874  -0.0188  0.1959  1.0000  -1.7125   0.0000   0.0000   0.0000   0.2701
  13.800   0.6092   0.16653   0.15892  -0.0198  0.1928  1.0000  -1.6897   0.0000   0.0000   0.0000   0.2717
  13.900   0.6096   0.16754   0.15992  -0.0203  0.1895  1.0000  -1.6851   0.0000   0.0000   0.0000   0.2724
  14.000   0.6122   0.16890   0.16129  -0.0206  0.1865  1.0000  -1.6907   0.0000   0.0000   0.0000   0.2727
  14.100   0.6168   0.17059   0.16298  -0.0207  0.1837  1.0000  -1.7058   0.0000   0.0000   0.0000   0.2725
  14.200   0.6248   0.17293   0.16535  -0.0204  0.1810  1.0000  -1.7358   0.0000   0.0000   0.0000   0.2717
  14.300   0.6519   0.18020   0.17272  -0.0187  0.1778  1.0000  -1.8403   0.0000   0.0000   0.0000   0.2678
  14.400   0.6638   0.18564   0.17816  -0.0185  0.1766  1.0000  -1.8733   0.0000   0.0000   0.0000   0.2670
  14.500   0.6560   0.18499   0.17746  -0.0198  0.1763  1.0000  -1.8315   0.0000   0.0000   0.0000   0.2692
  14.600   0.6475   0.18401   0.17644  -0.0212  0.1757  1.0000  -1.7884   0.0000   0.0000   0.0000   0.2715
  14.700   0.6391   0.18281   0.17520  -0.0225  0.1748  1.0000  -1.7460   0.0000   0.0000   0.0000   0.2738
  14.800   0.6330   0.18211   0.17447  -0.0238  0.1730  1.0000  -1.7105   0.0000   0.0000   0.0000   0.2759
  14.900   0.6311   0.18246   0.17480  -0.0247  0.1704  1.0000  -1.6918   0.0000   0.0000   0.0000   0.2774
  15.000   0.6318   0.18345   0.17578  -0.0254  0.1676  1.0000  -1.6854   0.0000   0.0000   0.0000   0.2783


