xflr5 v6.61

 Calculated polar for: SD8020-010-88

 1 1 Reynolds number fixed          Mach number fixed         

 xtrf =   1.000 (top)        1.000 (bottom)
 Mach =   0.000     Re =     0.375 e 6     Ncrit =   9.000

  alpha     CL        CD       CDp       Cm    Top Xtr Bot Xtr   Cpmin    Chinge    XCp    
 ------- -------- --------- --------- -------- ------- ------- -------- --------- ---------
 -10.000  -0.9773   0.02628   0.02079  -0.0213  1.0000  0.0163  -6.6751   0.0000   0.0000   0.0000   0.2187
  -9.900  -0.9716   0.02596   0.02044  -0.0205  1.0000  0.0168  -6.5730   0.0000   0.0000   0.0000   0.2195
  -9.800  -0.9659   0.02563   0.02007  -0.0198  1.0000  0.0173  -6.4730   0.0000   0.0000   0.0000   0.2203
  -9.700  -0.9601   0.02529   0.01969  -0.0190  1.0000  0.0178  -6.3757   0.0000   0.0000   0.0000   0.2211
  -9.600  -0.9541   0.02495   0.01930  -0.0182  1.0000  0.0183  -6.2792   0.0000   0.0000   0.0000   0.2219
  -9.500  -0.9478   0.02463   0.01893  -0.0175  1.0000  0.0187  -6.1814   0.0000   0.0000   0.0000   0.2226
  -9.400  -0.9413   0.02435   0.01860  -0.0167  1.0000  0.0191  -6.0808   0.0000   0.0000   0.0000   0.2234
  -9.300  -0.9344   0.02410   0.01830  -0.0161  1.0000  0.0194  -5.9767   0.0000   0.0000   0.0000   0.2241
  -9.200  -0.9272   0.02391   0.01802  -0.0154  1.0000  0.0196  -5.8657   0.0000   0.0000   0.0000   0.2248
  -9.100  -0.9241   0.02289   0.01690  -0.0142  1.0000  0.0200  -5.8262   0.0000   0.0000   0.0000   0.2261
  -9.000  -0.9252   0.02124   0.01508  -0.0124  1.0000  0.0210  -5.8468   0.0000   0.0000   0.0000   0.2282
  -8.900  -0.9228   0.02029   0.01404  -0.0111  1.0000  0.0219  -5.8073   0.0000   0.0000   0.0000   0.2297
  -8.800  -0.9183   0.01969   0.01340  -0.0100  1.0000  0.0228  -5.7342   0.0000   0.0000   0.0000   0.2309
  -8.700  -0.9126   0.01927   0.01296  -0.0091  1.0000  0.0236  -5.6417   0.0000   0.0000   0.0000   0.2319
  -8.600  -0.9059   0.01896   0.01262  -0.0084  1.0000  0.0244  -5.5385   0.0000   0.0000   0.0000   0.2327
  -8.500  -0.8990   0.01868   0.01233  -0.0077  1.0000  0.0252  -5.4320   0.0000   0.0000   0.0000   0.2335
  -8.400  -0.8919   0.01842   0.01204  -0.0070  1.0000  0.0260  -5.3257   0.0000   0.0000   0.0000   0.2344
  -8.300  -0.8847   0.01815   0.01174  -0.0063  1.0000  0.0268  -5.2202   0.0000   0.0000   0.0000   0.2352
  -8.200  -0.8772   0.01792   0.01149  -0.0057  1.0000  0.0277  -5.1108   0.0000   0.0000   0.0000   0.2359
  -8.100  -0.8694   0.01773   0.01127  -0.0051  1.0000  0.0286  -4.9985   0.0000   0.0000   0.0000   0.2367
  -8.000  -0.8615   0.01755   0.01107  -0.0045  1.0000  0.0295  -4.8855   0.0000   0.0000   0.0000   0.2374
  -7.900  -0.8534   0.01738   0.01087  -0.0040  1.0000  0.0303  -4.7725   0.0000   0.0000   0.0000   0.2381
  -7.800  -0.8453   0.01722   0.01068  -0.0034  1.0000  0.0309  -4.6598   0.0000   0.0000   0.0000   0.2388
  -7.700  -0.8371   0.01706   0.01050  -0.0029  1.0000  0.0313  -4.5480   0.0000   0.0000   0.0000   0.2395
  -7.600  -0.8290   0.01691   0.01032  -0.0023  1.0000  0.0317  -4.4378   0.0000   0.0000   0.0000   0.2402
  -7.500  -0.8225   0.01652   0.00989  -0.0015  1.0000  0.0322  -4.3495   0.0000   0.0000   0.0000   0.2414
  -7.400  -0.8190   0.01581   0.00909  -0.0001  1.0000  0.0336  -4.2950   0.0000   0.0000   0.0000   0.2431
  -7.300  -0.8141   0.01528   0.00851   0.0010  1.0000  0.0354  -4.2250   0.0000   0.0000   0.0000   0.2446
  -7.200  -0.8079   0.01490   0.00811   0.0020  1.0000  0.0374  -4.1410   0.0000   0.0000   0.0000   0.2459
  -7.100  -0.8009   0.01461   0.00783   0.0027  1.0000  0.0394  -4.0602   0.0000   0.0000   0.0000   0.2470
  -7.000  -0.7935   0.01437   0.00760   0.0034  1.0000  0.0418  -3.9772   0.0000   0.0000   0.0000   0.2479
  -6.900  -0.7855   0.01418   0.00740   0.0040  1.0000  0.0444  -3.8911   0.0000   0.0000   0.0000   0.2488
  -6.800  -0.7772   0.01404   0.00723   0.0046  1.0000  0.0469  -3.8026   0.0000   0.0000   0.0000   0.2497
  -6.700  -0.7696   0.01382   0.00698   0.0053  1.0000  0.0500  -3.7231   0.0000   0.0000   0.0000   0.2507
  -6.600  -0.7641   0.01336   0.00660   0.0063  1.0000  0.0586  -3.6597   0.0000   0.0000   0.0000   0.2522
  -6.500  -0.7561   0.01318   0.00639   0.0069  1.0000  0.0640  -3.5716   0.0000   0.0000   0.0000   0.2532
  -6.400  -0.7472   0.01310   0.00627   0.0073  1.0000  0.0671  -3.4801   0.0000   0.0000   0.0000   0.2540
  -6.300  -0.7405   0.01279   0.00600   0.0081  1.0000  0.0745  -3.4052   0.0000   0.0000   0.0000   0.2552
  -6.200  -0.7328   0.01259   0.00585   0.0087  1.0000  0.0801  -3.3205   0.0000   0.0000   0.0000   0.2563
  -6.100  -0.7245   0.01246   0.00571   0.0093  1.0000  0.0846  -3.2331   0.0000   0.0000   0.0000   0.2572
  -6.000  -0.7158   0.01238   0.00560   0.0098  1.0000  0.0877  -3.1439   0.0000   0.0000   0.0000   0.2582
  -5.900  -0.7082   0.01217   0.00542   0.0104  1.0000  0.0940  -3.0634   0.0000   0.0000   0.0000   0.2593
  -5.800  -0.7005   0.01199   0.00528   0.0110  1.0000  0.1000  -2.9807   0.0000   0.0000   0.0000   0.2604
  -5.700  -0.6922   0.01186   0.00516   0.0116  1.0000  0.1053  -2.8963   0.0000   0.0000   0.0000   0.2615
  -5.600  -0.6837   0.01178   0.00505   0.0121  1.0000  0.1093  -2.8108   0.0000   0.0000   0.0000   0.2625
  -5.500  -0.6760   0.01159   0.00491   0.0127  1.0000  0.1166  -2.7314   0.0000   0.0000   0.0000   0.2637
  -5.400  -0.6681   0.01144   0.00479   0.0133  1.0000  0.1235  -2.6509   0.0000   0.0000   0.0000   0.2649
  -5.300  -0.6598   0.01134   0.00469   0.0138  1.0000  0.1296  -2.5692   0.0000   0.0000   0.0000   0.2661
  -5.200  -0.6518   0.01121   0.00458   0.0144  1.0000  0.1366  -2.4899   0.0000   0.0000   0.0000   0.2673
  -5.100  -0.6440   0.01105   0.00448   0.0150  1.0000  0.1449  -2.4122   0.0000   0.0000   0.0000   0.2686
  -5.000  -0.6358   0.01095   0.00439   0.0156  1.0000  0.1526  -2.3332   0.0000   0.0000   0.0000   0.2698
  -4.900  -0.6281   0.01081   0.00429   0.0162  1.0000  0.1619  -2.2573   0.0000   0.0000   0.0000   0.2711
  -4.800  -0.6202   0.01069   0.00421   0.0167  1.0000  0.1716  -2.1885   0.0000   0.0000   0.0000   0.2725
  -4.700  -0.6122   0.01058   0.00413   0.0173  1.0000  0.1811  -2.1253   0.0000   0.0000   0.0000   0.2738
  -4.600  -0.6045   0.01045   0.00406   0.0179  1.0000  0.1924  -2.0675   0.0000   0.0000   0.0000   0.2753
  -4.500  -0.5966   0.01035   0.00399   0.0185  1.0000  0.2030  -2.0166   0.0000   0.0000   0.0000   0.2767
  -4.400  -0.5890   0.01022   0.00389   0.0191  1.0000  0.2157  -1.9675   0.0000   0.0000   0.0000   0.2782
  -4.300  -0.5813   0.01011   0.00383   0.0197  1.0000  0.2283  -1.9178   0.0000   0.0000   0.0000   0.2797
  -4.200  -0.5737   0.01000   0.00378   0.0203  1.0000  0.2424  -1.8687   0.0000   0.0000   0.0000   0.2813
  -4.100  -0.5663   0.00988   0.00373   0.0209  1.0000  0.2562  -1.8205   0.0000   0.0000   0.0000   0.2830
  -3.900  -0.5513   0.00968   0.00364   0.0222  1.0000  0.2834  -1.7248   0.0000   0.0000   0.0000   0.2864
  -3.800  -0.5428   0.00960   0.00360   0.0226  0.9999  0.2957  -1.6749   0.0000   0.0000   0.0000   0.2879
  -3.700  -0.5274   0.00950   0.00355   0.0216  0.9984  0.3123  -1.6080   0.0000   0.0000   0.0000   0.2873
  -3.600  -0.5122   0.00939   0.00351   0.0206  0.9967  0.3286  -1.5423   0.0000   0.0000   0.0000   0.2866
  -3.500  -0.4967   0.00930   0.00348   0.0196  0.9949  0.3449  -1.4767   0.0000   0.0000   0.0000   0.2859
  -3.300  -0.4654   0.00912   0.00342   0.0175  0.9915  0.3796  -1.3467   0.0000   0.0000   0.0000   0.2841
  -3.200  -0.4493   0.00903   0.00341   0.0164  0.9900  0.3974  -1.2819   0.0000   0.0000   0.0000   0.2830
  -3.100  -0.4352   0.00891   0.00335   0.0157  0.9881  0.4156  -1.2225   0.0000   0.0000   0.0000   0.2827
  -3.000  -0.4217   0.00878   0.00329   0.0152  0.9857  0.4347  -1.1648   0.0000   0.0000   0.0000   0.2826
  -2.900  -0.4077   0.00866   0.00324   0.0145  0.9832  0.4548  -1.1065   0.0000   0.0000   0.0000   0.2823
  -2.800  -0.3933   0.00853   0.00318   0.0138  0.9807  0.4745  -1.0551   0.0000   0.0000   0.0000   0.2818
  -2.700  -0.3784   0.00841   0.00314   0.0130  0.9783  0.4929  -1.0224   0.0000   0.0000   0.0000   0.2810
  -2.600  -0.3630   0.00831   0.00310   0.0120  0.9761  0.5112  -0.9893   0.0000   0.0000   0.0000   0.2799
  -2.500  -0.3472   0.00820   0.00306   0.0110  0.9742  0.5311  -0.9561   0.0000   0.0000   0.0000   0.2786
  -2.400  -0.3311   0.00809   0.00303   0.0100  0.9724  0.5515  -0.9226   0.0000   0.0000   0.0000   0.2770
  -2.300  -0.3148   0.00799   0.00300   0.0089  0.9709  0.5714  -0.8890   0.0000   0.0000   0.0000   0.2751
  -2.200  -0.2982   0.00789   0.00298   0.0077  0.9696  0.5896  -0.8554   0.0000   0.0000   0.0000   0.2729
  -2.100  -0.2890   0.00777   0.00292   0.0083  0.9651  0.6042  -0.8312   0.0000   0.0000   0.0000   0.2755
  -2.000  -0.2766   0.00767   0.00287   0.0081  0.9615  0.6209  -0.8031   0.0000   0.0000   0.0000   0.2761
  -1.900  -0.2629   0.00756   0.00283   0.0076  0.9583  0.6383  -0.7737   0.0000   0.0000   0.0000   0.2759
  -1.800  -0.2483   0.00745   0.00280   0.0069  0.9557  0.6545  -0.7434   0.0000   0.0000   0.0000   0.2750
  -1.700  -0.2328   0.00736   0.00275   0.0061  0.9534  0.6701  -0.7123   0.0000   0.0000   0.0000   0.2734
  -1.600  -0.2169   0.00726   0.00270   0.0052  0.9514  0.6861  -0.6836   0.0000   0.0000   0.0000   0.2711
  -1.500  -0.2008   0.00716   0.00267   0.0043  0.9497  0.7012  -0.6576   0.0000   0.0000   0.0000   0.2684
  -1.400  -0.1842   0.00708   0.00263   0.0032  0.9480  0.7161  -0.6312   0.0000   0.0000   0.0000   0.2646
  -1.300  -0.1725   0.00699   0.00259   0.0033  0.9439  0.7293  -0.6098   0.0000   0.0000   0.0000   0.2660
  -1.200  -0.1613   0.00691   0.00255   0.0034  0.9388  0.7415  -0.5891   0.0000   0.0000   0.0000   0.2684
  -1.100  -0.1480   0.00683   0.00252   0.0031  0.9347  0.7546  -0.5663   0.0000   0.0000   0.0000   0.2683
  -1.000  -0.1335   0.00674   0.00248   0.0026  0.9310  0.7667  -0.5446   0.0000   0.0000   0.0000   0.2667
  -0.900  -0.1180   0.00667   0.00244   0.0018  0.9277  0.7792  -0.5238   0.0000   0.0000   0.0000   0.2627
  -0.800  -0.1018   0.00659   0.00240   0.0010  0.9247  0.7903  -0.5026   0.0000   0.0000   0.0000   0.2565
  -0.700  -0.0915   0.00654   0.00239   0.0013  0.9178  0.8017  -0.4862   0.0000   0.0000   0.0000   0.2615
  -0.600  -0.0786   0.00648   0.00236   0.0011  0.9116  0.8120  -0.4680   0.0000   0.0000   0.0000   0.2618
  -0.500  -0.0642   0.00643   0.00233   0.0007  0.9063  0.8227  -0.4507   0.0000   0.0000   0.0000   0.2578
  -0.400  -0.0493   0.00638   0.00229   0.0001  0.9013  0.8329  -0.4335   0.0000   0.0000   0.0000   0.2489
  -0.300  -0.0381   0.00635   0.00229   0.0003  0.8933  0.8428  -0.4190   0.0000   0.0000   0.0000   0.2551
  -0.200  -0.0260   0.00633   0.00227   0.0003  0.8855  0.8527  -0.4039   0.0000   0.0000   0.0000   0.2589
  -0.100  -0.0116   0.00631   0.00226  -0.0001  0.8787  0.8609  -0.3874   0.0000   0.0000   0.0000   0.2368
   0.000   0.0000   0.00631   0.00227  -0.0000  0.8700  0.8700  -0.3745   0.0000   0.0000   0.0000   0.3560
   0.100   0.0117   0.00631   0.00226   0.0001  0.8608  0.8788  -0.3874   0.0000   0.0000   0.0000   0.2375
   0.200   0.0260   0.00633   0.00227  -0.0003  0.8526  0.8856  -0.4038   0.0000   0.0000   0.0000   0.2590
   0.300   0.0381   0.00635   0.00229  -0.0003  0.8427  0.8934  -0.4188   0.0000   0.0000   0.0000   0.2551
   0.400   0.0494   0.00638   0.00229  -0.0001  0.8328  0.9013  -0.4334   0.0000   0.0000   0.0000   0.2491
   0.500   0.0643   0.00643   0.00233  -0.0007  0.8226  0.9064  -0.4506   0.0000   0.0000   0.0000   0.2579
   0.600   0.0786   0.00648   0.00236  -0.0012  0.8119  0.9117  -0.4683   0.0000   0.0000   0.0000   0.2618
   0.700   0.0915   0.00654   0.00239  -0.0013  0.8016  0.9178  -0.4866   0.0000   0.0000   0.0000   0.2615
   0.800   0.1019   0.00659   0.00240  -0.0010  0.7903  0.9248  -0.5030   0.0000   0.0000   0.0000   0.2566
   0.900   0.1180   0.00667   0.00244  -0.0018  0.7793  0.9278  -0.5242   0.0000   0.0000   0.0000   0.2628
   1.000   0.1336   0.00674   0.00248  -0.0026  0.7669  0.9310  -0.5450   0.0000   0.0000   0.0000   0.2668
   1.100   0.1480   0.00683   0.00252  -0.0031  0.7548  0.9347  -0.5660   0.0000   0.0000   0.0000   0.2683
   1.200   0.1614   0.00691   0.00256  -0.0034  0.7417  0.9388  -0.5887   0.0000   0.0000   0.0000   0.2685
   1.300   0.1725   0.00699   0.00259  -0.0033  0.7295  0.9440  -0.6094   0.0000   0.0000   0.0000   0.2660
   1.400   0.1843   0.00708   0.00263  -0.0033  0.7163  0.9481  -0.6309   0.0000   0.0000   0.0000   0.2647
   1.500   0.2009   0.00716   0.00267  -0.0043  0.7016  0.9497  -0.6573   0.0000   0.0000   0.0000   0.2685
   1.600   0.2171   0.00726   0.00270  -0.0052  0.6864  0.9514  -0.6833   0.0000   0.0000   0.0000   0.2712
   1.700   0.2329   0.00736   0.00276  -0.0061  0.6703  0.9534  -0.7120   0.0000   0.0000   0.0000   0.2734
   1.800   0.2483   0.00745   0.00280  -0.0070  0.6545  0.9557  -0.7430   0.0000   0.0000   0.0000   0.2751
   1.900   0.2629   0.00756   0.00283  -0.0076  0.6381  0.9584  -0.7733   0.0000   0.0000   0.0000   0.2760
   2.000   0.2766   0.00767   0.00287  -0.0081  0.6206  0.9615  -0.8027   0.0000   0.0000   0.0000   0.2762
   2.100   0.2890   0.00777   0.00292  -0.0083  0.6039  0.9652  -0.8308   0.0000   0.0000   0.0000   0.2755
   2.200   0.2984   0.00789   0.00298  -0.0078  0.5894  0.9697  -0.8552   0.0000   0.0000   0.0000   0.2730
   2.300   0.3150   0.00799   0.00300  -0.0089  0.5715  0.9710  -0.8888   0.0000   0.0000   0.0000   0.2752
   2.400   0.3314   0.00809   0.00303  -0.0100  0.5518  0.9725  -0.9224   0.0000   0.0000   0.0000   0.2771
   2.500   0.3474   0.00819   0.00306  -0.0111  0.5315  0.9742  -0.9558   0.0000   0.0000   0.0000   0.2787
   2.600   0.3631   0.00830   0.00310  -0.0121  0.5116  0.9761  -0.9890   0.0000   0.0000   0.0000   0.2800
   2.700   0.3784   0.00841   0.00313  -0.0130  0.4932  0.9783  -1.0219   0.0000   0.0000   0.0000   0.2810
   2.800   0.3932   0.00853   0.00317  -0.0138  0.4749  0.9807  -1.0545   0.0000   0.0000   0.0000   0.2817
   2.900   0.4075   0.00866   0.00324  -0.0145  0.4552  0.9832  -1.1056   0.0000   0.0000   0.0000   0.2822
   3.000   0.4215   0.00877   0.00329  -0.0151  0.4351  0.9856  -1.1640   0.0000   0.0000   0.0000   0.2825
   3.100   0.4350   0.00890   0.00335  -0.0157  0.4158  0.9880  -1.2216   0.0000   0.0000   0.0000   0.2826
   3.200   0.4490   0.00902   0.00340  -0.0163  0.3975  0.9900  -1.2807   0.0000   0.0000   0.0000   0.2829
   3.300   0.4651   0.00911   0.00342  -0.0175  0.3797  0.9914  -1.3456   0.0000   0.0000   0.0000   0.2841
   3.500   0.4968   0.00930   0.00348  -0.0197  0.3449  0.9949  -1.4763   0.0000   0.0000   0.0000   0.2859
   3.600   0.5123   0.00939   0.00351  -0.0207  0.3286  0.9968  -1.5420   0.0000   0.0000   0.0000   0.2867
   3.700   0.5277   0.00950   0.00355  -0.0217  0.3122  0.9985  -1.6082   0.0000   0.0000   0.0000   0.2874
   3.800   0.5432   0.00960   0.00359  -0.0227  0.2955  0.9999  -1.6754   0.0000   0.0000   0.0000   0.2880
   3.900   0.5512   0.00968   0.00364  -0.0222  0.2833  1.0000  -1.7241   0.0000   0.0000   0.0000   0.2864
   4.100   0.5662   0.00988   0.00373  -0.0209  0.2563  1.0000  -1.8198   0.0000   0.0000   0.0000   0.2830
   4.200   0.5736   0.01000   0.00378  -0.0203  0.2425  1.0000  -1.8680   0.0000   0.0000   0.0000   0.2813
   4.300   0.5813   0.01011   0.00383  -0.0197  0.2286  1.0000  -1.9172   0.0000   0.0000   0.0000   0.2797
   4.400   0.5890   0.01021   0.00389  -0.0191  0.2161  1.0000  -1.9668   0.0000   0.0000   0.0000   0.2782
   4.500   0.5966   0.01034   0.00399  -0.0185  0.2036  1.0000  -2.0160   0.0000   0.0000   0.0000   0.2767
   4.600   0.6045   0.01044   0.00405  -0.0179  0.1929  1.0000  -2.0668   0.0000   0.0000   0.0000   0.2753
   4.700   0.6122   0.01057   0.00413  -0.0173  0.1816  1.0000  -2.1229   0.0000   0.0000   0.0000   0.2738
   4.800   0.6201   0.01068   0.00421  -0.0167  0.1719  1.0000  -2.1859   0.0000   0.0000   0.0000   0.2725
   4.900   0.6280   0.01081   0.00429  -0.0162  0.1620  1.0000  -2.2553   0.0000   0.0000   0.0000   0.2711
   5.000   0.6358   0.01095   0.00439  -0.0155  0.1527  1.0000  -2.3312   0.0000   0.0000   0.0000   0.2698
   5.100   0.6440   0.01105   0.00447  -0.0150  0.1450  1.0000  -2.4102   0.0000   0.0000   0.0000   0.2686
   5.200   0.6518   0.01120   0.00458  -0.0144  0.1368  1.0000  -2.4879   0.0000   0.0000   0.0000   0.2673
   5.300   0.6598   0.01133   0.00469  -0.0138  0.1297  1.0000  -2.5671   0.0000   0.0000   0.0000   0.2661
   5.400   0.6681   0.01144   0.00479  -0.0133  0.1236  1.0000  -2.6488   0.0000   0.0000   0.0000   0.2649
   5.500   0.6760   0.01159   0.00491  -0.0127  0.1167  1.0000  -2.7293   0.0000   0.0000   0.0000   0.2637
   5.600   0.6836   0.01178   0.00505  -0.0121  0.1093  1.0000  -2.8086   0.0000   0.0000   0.0000   0.2625
   5.700   0.6922   0.01186   0.00516  -0.0116  0.1053  1.0000  -2.8940   0.0000   0.0000   0.0000   0.2615
   5.800   0.7004   0.01199   0.00528  -0.0110  0.1000  1.0000  -2.9784   0.0000   0.0000   0.0000   0.2604
   5.900   0.7082   0.01217   0.00542  -0.0104  0.0939  1.0000  -3.0610   0.0000   0.0000   0.0000   0.2593
   6.000   0.7157   0.01238   0.00560  -0.0098  0.0877  1.0000  -3.1415   0.0000   0.0000   0.0000   0.2581
   6.100   0.7244   0.01246   0.00572  -0.0093  0.0845  1.0000  -3.2306   0.0000   0.0000   0.0000   0.2572
   6.200   0.7327   0.01260   0.00585  -0.0087  0.0800  1.0000  -3.3179   0.0000   0.0000   0.0000   0.2563
   6.300   0.7404   0.01280   0.00600  -0.0081  0.0743  1.0000  -3.4023   0.0000   0.0000   0.0000   0.2552
   6.400   0.7472   0.01310   0.00628  -0.0073  0.0671  1.0000  -3.4774   0.0000   0.0000   0.0000   0.2540
   6.500   0.7560   0.01319   0.00640  -0.0069  0.0640  1.0000  -3.5687   0.0000   0.0000   0.0000   0.2531
   6.600   0.7640   0.01336   0.00660  -0.0063  0.0588  1.0000  -3.6569   0.0000   0.0000   0.0000   0.2522
   6.700   0.7699   0.01377   0.00694  -0.0053  0.0509  1.0000  -3.7248   0.0000   0.0000   0.0000   0.2508
   6.800   0.7770   0.01406   0.00725  -0.0045  0.0471  1.0000  -3.7988   0.0000   0.0000   0.0000   0.2496
   6.900   0.7854   0.01420   0.00741  -0.0040  0.0447  1.0000  -3.8879   0.0000   0.0000   0.0000   0.2488
   7.000   0.7934   0.01438   0.00761  -0.0034  0.0421  1.0000  -3.9743   0.0000   0.0000   0.0000   0.2479
   7.100   0.8009   0.01460   0.00783  -0.0027  0.0397  1.0000  -4.0582   0.0000   0.0000   0.0000   0.2470
   7.200   0.8080   0.01489   0.00810  -0.0020  0.0377  1.0000  -4.1415   0.0000   0.0000   0.0000   0.2459
   7.300   0.8144   0.01525   0.00848  -0.0011  0.0357  1.0000  -4.2276   0.0000   0.0000   0.0000   0.2447
   7.400   0.8195   0.01575   0.00903   0.0000  0.0339  1.0000  -4.2999   0.0000   0.0000   0.0000   0.2432
   7.500   0.8232   0.01644   0.00980   0.0014  0.0325  1.0000  -4.3569   0.0000   0.0000   0.0000   0.2415
   7.600   0.8287   0.01694   0.01036   0.0024  0.0317  1.0000  -4.4343   0.0000   0.0000   0.0000   0.2402
   7.700   0.8369   0.01710   0.01054   0.0029  0.0314  1.0000  -4.5449   0.0000   0.0000   0.0000   0.2394
   7.800   0.8451   0.01725   0.01071   0.0035  0.0310  1.0000  -4.6572   0.0000   0.0000   0.0000   0.2387
   7.900   0.8533   0.01740   0.01089   0.0040  0.0303  1.0000  -4.7704   0.0000   0.0000   0.0000   0.2380
   8.000   0.8614   0.01756   0.01108   0.0046  0.0296  1.0000  -4.8839   0.0000   0.0000   0.0000   0.2373
   8.100   0.8693   0.01774   0.01129   0.0051  0.0287  1.0000  -4.9972   0.0000   0.0000   0.0000   0.2366
   8.200   0.8771   0.01793   0.01151   0.0057  0.0278  1.0000  -5.1096   0.0000   0.0000   0.0000   0.2359
   8.300   0.8846   0.01816   0.01176   0.0063  0.0269  1.0000  -5.2193   0.0000   0.0000   0.0000   0.2352
   8.400   0.8918   0.01842   0.01205   0.0070  0.0261  1.0000  -5.3249   0.0000   0.0000   0.0000   0.2344
   8.500   0.8990   0.01869   0.01234   0.0077  0.0253  1.0000  -5.4312   0.0000   0.0000   0.0000   0.2335
   8.600   0.9060   0.01896   0.01263   0.0084  0.0245  1.0000  -5.5380   0.0000   0.0000   0.0000   0.2327
   8.700   0.9127   0.01926   0.01296   0.0091  0.0237  1.0000  -5.6425   0.0000   0.0000   0.0000   0.2319
   8.800   0.9186   0.01966   0.01337   0.0100  0.0229  1.0000  -5.7374   0.0000   0.0000   0.0000   0.2310
   8.900   0.9233   0.02023   0.01398   0.0110  0.0220  1.0000  -5.8142   0.0000   0.0000   0.0000   0.2298
   9.000   0.9260   0.02112   0.01495   0.0123  0.0211  1.0000  -5.8589   0.0000   0.0000   0.0000   0.2283
   9.100   0.9254   0.02267   0.01666   0.0140  0.0201  1.0000  -5.8464   0.0000   0.0000   0.0000   0.2263
   9.200   0.9271   0.02392   0.01804   0.0154  0.0196  1.0000  -5.8652   0.0000   0.0000   0.0000   0.2248
   9.300   0.9344   0.02410   0.01831   0.0160  0.0194  1.0000  -5.9772   0.0000   0.0000   0.0000   0.2241
   9.400   0.9414   0.02434   0.01859   0.0167  0.0191  1.0000  -6.0825   0.0000   0.0000   0.0000   0.2234
   9.500   0.9480   0.02461   0.01891   0.0174  0.0187  1.0000  -6.1841   0.0000   0.0000   0.0000   0.2227
   9.600   0.9543   0.02492   0.01927   0.0182  0.0183  1.0000  -6.2828   0.0000   0.0000   0.0000   0.2219
   9.700   0.9604   0.02526   0.01965   0.0189  0.0178  1.0000  -6.3800   0.0000   0.0000   0.0000   0.2211
   9.800   0.9663   0.02559   0.02003   0.0197  0.0173  1.0000  -6.4779   0.0000   0.0000   0.0000   0.2203
   9.900   0.9720   0.02592   0.02039   0.0205  0.0168  1.0000  -6.5784   0.0000   0.0000   0.0000   0.2196
  10.000   0.9777   0.02623   0.02074   0.0212  0.0163  1.0000  -6.6809   0.0000   0.0000   0.0000   0.2188
  10.100   0.9833   0.02652   0.02106   0.0220  0.0158  1.0000  -6.7872   0.0000   0.0000   0.0000   0.2180
  10.200   0.9888   0.02679   0.02136   0.0227  0.0154  1.0000  -6.8963   0.0000   0.0000   0.0000   0.2172
  10.300   0.9941   0.02707   0.02165   0.0235  0.0150  1.0000  -7.0063   0.0000   0.0000   0.0000   0.2165
  10.400   0.9990   0.02737   0.02198   0.0243  0.0146  1.0000  -7.1139   0.0000   0.0000   0.0000   0.2157
  10.500   1.0034   0.02774   0.02237   0.0251  0.0143  1.0000  -7.2141   0.0000   0.0000   0.0000   0.2148
  10.600   1.0070   0.02821   0.02288   0.0261  0.0140  1.0000  -7.3014   0.0000   0.0000   0.0000   0.2138
  10.700   1.0097   0.02875   0.02347   0.0271  0.0138  1.0000  -7.3787   0.0000   0.0000   0.0000   0.2127
  10.800   1.0118   0.02936   0.02413   0.0282  0.0136  1.0000  -7.4477   0.0000   0.0000   0.0000   0.2116
  10.900   1.0129   0.03005   0.02487   0.0294  0.0134  1.0000  -7.5060   0.0000   0.0000   0.0000   0.2103
  11.000   1.0127   0.03080   0.02570   0.0308  0.0132  1.0000  -7.5505   0.0000   0.0000   0.0000   0.2089
  11.100   1.0106   0.03159   0.02656   0.0324  0.0130  1.0000  -7.5795   0.0000   0.0000   0.0000   0.2071
  11.200   1.0074   0.03244   0.02749   0.0341  0.0129  1.0000  -7.5969   0.0000   0.0000   0.0000   0.2051
  11.300   1.0034   0.03337   0.02850   0.0358  0.0128  1.0000  -7.6048   0.0000   0.0000   0.0000   0.2032
  11.400   0.9987   0.03438   0.02960   0.0374  0.0126  1.0000  -7.6043   0.0000   0.0000   0.0000   0.2013
  11.500   0.9934   0.03548   0.03079   0.0389  0.0125  1.0000  -7.5963   0.0000   0.0000   0.0000   0.1994
  11.600   0.9876   0.03664   0.03205   0.0403  0.0125  1.0000  -7.5820   0.0000   0.0000   0.0000   0.1976
  11.700   0.9813   0.03788   0.03338   0.0415  0.0124  1.0000  -7.5626   0.0000   0.0000   0.0000   0.1960
  11.800   0.9746   0.03918   0.03478   0.0426  0.0123  1.0000  -7.5392   0.0000   0.0000   0.0000   0.1945
  11.900   0.9676   0.04056   0.03625   0.0434  0.0123  1.0000  -7.5129   0.0000   0.0000   0.0000   0.1932
  12.000   0.9604   0.04199   0.03778   0.0440  0.0122  1.0000  -7.4845   0.0000   0.0000   0.0000   0.1921
  12.100   0.9532   0.04351   0.03939   0.0443  0.0122  1.0000  -7.4544   0.0000   0.0000   0.0000   0.1912
  12.200   0.9460   0.04511   0.04108   0.0444  0.0122  1.0000  -7.4231   0.0000   0.0000   0.0000   0.1906
  12.300   0.9387   0.04679   0.04284   0.0442  0.0121  1.0000  -7.3909   0.0000   0.0000   0.0000   0.1902
  12.400   0.9316   0.04857   0.04470   0.0438  0.0121  1.0000  -7.3578   0.0000   0.0000   0.0000   0.1901
  12.500   0.9246   0.05045   0.04666   0.0431  0.0121  1.0000  -7.3238   0.0000   0.0000   0.0000   0.1903
  12.600   0.9177   0.05241   0.04869   0.0423  0.0121  1.0000  -7.2893   0.0000   0.0000   0.0000   0.1907
  12.700   0.9109   0.05447   0.05083   0.0412  0.0121  1.0000  -7.2539   0.0000   0.0000   0.0000   0.1913
  12.800   0.9043   0.05664   0.05307   0.0399  0.0121  1.0000  -7.2175   0.0000   0.0000   0.0000   0.1922
  12.900   0.8979   0.05891   0.05540   0.0385  0.0121  1.0000  -7.1801   0.0000   0.0000   0.0000   0.1933
  13.000   0.8917   0.06128   0.05783   0.0369  0.0121  1.0000  -7.1413   0.0000   0.0000   0.0000   0.1945
  13.100   0.8855   0.06373   0.06034   0.0352  0.0121  1.0000  -7.1013   0.0000   0.0000   0.0000   0.1960
  13.200   0.8795   0.06625   0.06292   0.0335  0.0122  1.0000  -7.0597   0.0000   0.0000   0.0000   0.1975
  13.300   0.8735   0.06886   0.06558   0.0316  0.0122  1.0000  -7.0161   0.0000   0.0000   0.0000   0.1992
  13.400   0.8676   0.07155   0.06833   0.0297  0.0122  1.0000  -6.9701   0.0000   0.0000   0.0000   0.2010
  13.500   0.8617   0.07432   0.07115   0.0278  0.0122  1.0000  -6.9212   0.0000   0.0000   0.0000   0.2028
  13.600   0.8558   0.07717   0.07405   0.0258  0.0123  1.0000  -6.8688   0.0000   0.0000   0.0000   0.2048
  13.700   0.8498   0.08010   0.07702   0.0238  0.0123  1.0000  -6.8122   0.0000   0.0000   0.0000   0.2067
  13.800   0.8436   0.08311   0.08008   0.0218  0.0124  1.0000  -6.7502   0.0000   0.0000   0.0000   0.2088
  13.900   0.8372   0.08622   0.08324   0.0198  0.0124  1.0000  -6.6811   0.0000   0.0000   0.0000   0.2108
  14.000   0.8303   0.08949   0.08655   0.0178  0.0125  1.0000  -6.6014   0.0000   0.0000   0.0000   0.2130
  14.100   0.8226   0.09302   0.09012   0.0156  0.0126  1.0000  -6.5041   0.0000   0.0000   0.0000   0.2154
  14.200   0.8129   0.09714   0.09428   0.0132  0.0128  1.0000  -6.3678   0.0000   0.0000   0.0000   0.2181
  14.300   0.6593   0.14188   0.13905  -0.0070  0.0172  1.0000  -3.2003   0.0000   0.0000   0.0000   0.2474
  14.400   0.6571   0.14455   0.14171  -0.0081  0.0174  1.0000  -3.1197   0.0000   0.0000   0.0000   0.2490
  14.500   0.6554   0.14710   0.14426  -0.0090  0.0175  1.0000  -3.0470   0.0000   0.0000   0.0000   0.2504
  14.600   0.6540   0.14955   0.14670  -0.0100  0.0177  1.0000  -2.9804   0.0000   0.0000   0.0000   0.2518
  14.700   0.6529   0.15191   0.14906  -0.0108  0.0179  1.0000  -2.9184   0.0000   0.0000   0.0000   0.2531
  14.800   0.6520   0.15422   0.15136  -0.0117  0.0181  1.0000  -2.8595   0.0000   0.0000   0.0000   0.2544
  14.900   0.6511   0.15651   0.15365  -0.0125  0.0183  1.0000  -2.8012   0.0000   0.0000   0.0000   0.2556
  15.000   0.6494   0.15901   0.15614  -0.0133  0.0188  1.0000  -2.7301   0.0000   0.0000   0.0000   0.2569


