xflr5 v6.61

 Calculated polar for: SD8020-010-88

 1 1 Reynolds number fixed          Mach number fixed         

 xtrf =   1.000 (top)        1.000 (bottom)
 Mach =   0.000     Re =     0.100 e 6     Ncrit =   9.000

  alpha     CL        CD       CDp       Cm    Top Xtr Bot Xtr   Cpmin    Chinge    XCp    
 ------- -------- --------- --------- -------- ------- ------- -------- --------- ---------
 -10.000  -0.8129   0.05917   0.05375  -0.0337  1.0000  0.0625  -4.1194   0.0000   0.0000   0.0000   0.2000
  -9.900  -0.8216   0.05764   0.05214  -0.0326  1.0000  0.0623  -4.1551   0.0000   0.0000   0.0000   0.2018
  -9.800  -0.8292   0.05601   0.05042  -0.0316  1.0000  0.0621  -4.1893   0.0000   0.0000   0.0000   0.2035
  -9.700  -0.8359   0.05437   0.04868  -0.0306  1.0000  0.0619  -4.2209   0.0000   0.0000   0.0000   0.2051
  -9.600  -0.8417   0.05273   0.04692  -0.0295  1.0000  0.0618  -4.2494   0.0000   0.0000   0.0000   0.2067
  -9.500  -0.8467   0.05110   0.04516  -0.0284  1.0000  0.0617  -4.2746   0.0000   0.0000   0.0000   0.2082
  -9.400  -0.8508   0.04950   0.04342  -0.0273  1.0000  0.0618  -4.2958   0.0000   0.0000   0.0000   0.2098
  -9.300  -0.8540   0.04792   0.04169  -0.0262  1.0000  0.0618  -4.3125   0.0000   0.0000   0.0000   0.2113
  -9.200  -0.8563   0.04639   0.04000  -0.0250  1.0000  0.0620  -4.3242   0.0000   0.0000   0.0000   0.2128
  -9.100  -0.8576   0.04490   0.03835  -0.0239  1.0000  0.0623  -4.3305   0.0000   0.0000   0.0000   0.2143
  -9.000  -0.8581   0.04347   0.03675  -0.0227  1.0000  0.0626  -4.3312   0.0000   0.0000   0.0000   0.2157
  -8.900  -0.8576   0.04210   0.03520  -0.0216  1.0000  0.0631  -4.3260   0.0000   0.0000   0.0000   0.2171
  -8.800  -0.8564   0.04080   0.03372  -0.0205  1.0000  0.0636  -4.3148   0.0000   0.0000   0.0000   0.2184
  -8.700  -0.8543   0.03958   0.03232  -0.0194  1.0000  0.0642  -4.2972   0.0000   0.0000   0.0000   0.2197
  -8.600  -0.8514   0.03845   0.03101  -0.0183  1.0000  0.0649  -4.2730   0.0000   0.0000   0.0000   0.2209
  -8.500  -0.8477   0.03742   0.02981  -0.0173  1.0000  0.0656  -4.2416   0.0000   0.0000   0.0000   0.2221
  -8.400  -0.8434   0.03656   0.02877  -0.0163  1.0000  0.0664  -4.2013   0.0000   0.0000   0.0000   0.2233
  -8.200  -0.8376   0.03368   0.02557  -0.0144  1.0000  0.0694  -4.1443   0.0000   0.0000   0.0000   0.2256
  -8.100  -0.8322   0.03257   0.02447  -0.0139  1.0000  0.0720  -4.0748   0.0000   0.0000   0.0000   0.2262
  -8.000  -0.8257   0.03205   0.02398  -0.0133  1.0000  0.0744  -3.9898   0.0000   0.0000   0.0000   0.2268
  -7.900  -0.8192   0.03145   0.02333  -0.0126  1.0000  0.0767  -3.9179   0.0000   0.0000   0.0000   0.2277
  -7.800  -0.8127   0.03068   0.02246  -0.0118  1.0000  0.0786  -3.8706   0.0000   0.0000   0.0000   0.2286
  -7.700  -0.8058   0.02983   0.02149  -0.0110  1.0000  0.0804  -3.8308   0.0000   0.0000   0.0000   0.2295
  -7.600  -0.7987   0.02902   0.02055  -0.0103  1.0000  0.0826  -3.7897   0.0000   0.0000   0.0000   0.2304
  -7.500  -0.7913   0.02826   0.01966  -0.0095  1.0000  0.0849  -3.7474   0.0000   0.0000   0.0000   0.2314
  -7.400  -0.7838   0.02766   0.01890  -0.0087  1.0000  0.0871  -3.7019   0.0000   0.0000   0.0000   0.2323
  -7.300  -0.7764   0.02632   0.01748  -0.0080  1.0000  0.0903  -3.6678   0.0000   0.0000   0.0000   0.2331
  -7.200  -0.7691   0.02539   0.01662  -0.0075  1.0000  0.0944  -3.6105   0.0000   0.0000   0.0000   0.2338
  -7.100  -0.7618   0.02489   0.01614  -0.0068  1.0000  0.0988  -3.5471   0.0000   0.0000   0.0000   0.2347
  -7.000  -0.7543   0.02440   0.01559  -0.0061  1.0000  0.1040  -3.4891   0.0000   0.0000   0.0000   0.2356
  -6.900  -0.7467   0.02405   0.01498  -0.0053  1.0000  0.1090  -3.4310   0.0000   0.0000   0.0000   0.2367
  -6.800  -0.7400   0.02312   0.01419  -0.0047  1.0000  0.1159  -3.3698   0.0000   0.0000   0.0000   0.2375
  -6.700  -0.7333   0.02287   0.01397  -0.0040  1.0000  0.1231  -3.2974   0.0000   0.0000   0.0000   0.2385
  -6.600  -0.7261   0.02267   0.01362  -0.0032  1.0000  0.1305  -3.2326   0.0000   0.0000   0.0000   0.2397
  -6.500  -0.7190   0.02192   0.01300  -0.0026  1.0000  0.1380  -3.1669   0.0000   0.0000   0.0000   0.2405
  -6.400  -0.7119   0.02161   0.01271  -0.0019  1.0000  0.1455  -3.0959   0.0000   0.0000   0.0000   0.2416
  -6.300  -0.7045   0.02143   0.01238  -0.0011  1.0000  0.1537  -3.0285   0.0000   0.0000   0.0000   0.2427
  -6.200  -0.6975   0.02082   0.01194  -0.0005  1.0000  0.1622  -2.9574   0.0000   0.0000   0.0000   0.2436
  -6.100  -0.6903   0.02058   0.01169   0.0002  1.0000  0.1713  -2.8856   0.0000   0.0000   0.0000   0.2448
  -6.000  -0.6827   0.02013   0.01123   0.0008  1.0000  0.1801  -2.8181   0.0000   0.0000   0.0000   0.2458
  -5.900  -0.6755   0.01976   0.01094   0.0015  1.0000  0.1887  -2.7464   0.0000   0.0000   0.0000   0.2469
  -5.800  -0.6676   0.01949   0.01058   0.0022  1.0000  0.1984  -2.6778   0.0000   0.0000   0.0000   0.2481
  -5.700  -0.6606   0.01902   0.01026   0.0029  1.0000  0.2080  -2.6074   0.0000   0.0000   0.0000   0.2492
  -5.600  -0.6532   0.01879   0.01000   0.0036  1.0000  0.2196  -2.5371   0.0000   0.0000   0.0000   0.2504
  -5.500  -0.6461   0.01839   0.00970   0.0043  1.0000  0.2304  -2.4677   0.0000   0.0000   0.0000   0.2516
  -5.400  -0.6386   0.01814   0.00944   0.0050  1.0000  0.2429  -2.3985   0.0000   0.0000   0.0000   0.2529
  -5.300  -0.6315   0.01774   0.00917   0.0057  1.0000  0.2544  -2.3300   0.0000   0.0000   0.0000   0.2542
  -5.200  -0.6239   0.01750   0.00888   0.0064  1.0000  0.2682  -2.2620   0.0000   0.0000   0.0000   0.2555
  -5.100  -0.6169   0.01712   0.00865   0.0072  1.0000  0.2805  -2.1990   0.0000   0.0000   0.0000   0.2569
  -5.000  -0.6095   0.01683   0.00839   0.0079  1.0000  0.2951  -2.1430   0.0000   0.0000   0.0000   0.2583
  -4.900  -0.6025   0.01655   0.00819   0.0086  1.0000  0.3097  -2.0868   0.0000   0.0000   0.0000   0.2598
  -4.800  -0.5955   0.01626   0.00801   0.0094  1.0000  0.3249  -2.0308   0.0000   0.0000   0.0000   0.2614
  -4.700  -0.5884   0.01603   0.00782   0.0102  1.0000  0.3420  -1.9811   0.0000   0.0000   0.0000   0.2630
  -4.600  -0.5814   0.01580   0.00758   0.0110  1.0000  0.3596  -1.9359   0.0000   0.0000   0.0000   0.2646
  -4.500  -0.5747   0.01554   0.00746   0.0118  1.0000  0.3764  -1.8906   0.0000   0.0000   0.0000   0.2664
  -4.400  -0.5677   0.01531   0.00731   0.0127  1.0000  0.3941  -1.8455   0.0000   0.0000   0.0000   0.2682
  -4.300  -0.5607   0.01510   0.00717   0.0135  1.0000  0.4126  -1.8005   0.0000   0.0000   0.0000   0.2700
  -4.100  -0.5468   0.01470   0.00693   0.0152  1.0000  0.4492  -1.7109   0.0000   0.0000   0.0000   0.2739
  -4.000  -0.5398   0.01450   0.00684   0.0161  1.0000  0.4676  -1.6663   0.0000   0.0000   0.0000   0.2759
  -3.900  -0.5329   0.01433   0.00674   0.0170  1.0000  0.4868  -1.6220   0.0000   0.0000   0.0000   0.2781
  -3.800  -0.5260   0.01417   0.00666   0.0179  1.0000  0.5066  -1.5779   0.0000   0.0000   0.0000   0.2803
  -3.700  -0.5191   0.01402   0.00658   0.0188  1.0000  0.5268  -1.5342   0.0000   0.0000   0.0000   0.2826
  -3.600  -0.5123   0.01388   0.00652   0.0197  1.0000  0.5464  -1.4906   0.0000   0.0000   0.0000   0.2850
  -3.500  -0.5053   0.01374   0.00649   0.0207  1.0000  0.5653  -1.4470   0.0000   0.0000   0.0000   0.2875
  -3.400  -0.4984   0.01361   0.00645   0.0217  1.0000  0.5846  -1.4037   0.0000   0.0000   0.0000   0.2901
  -3.300  -0.4914   0.01350   0.00641   0.0227  1.0000  0.6042  -1.3608   0.0000   0.0000   0.0000   0.2928
  -3.200  -0.4845   0.01340   0.00638   0.0237  1.0000  0.6239  -1.3183   0.0000   0.0000   0.0000   0.2956
  -3.100  -0.4777   0.01332   0.00635   0.0247  1.0000  0.6438  -1.2763   0.0000   0.0000   0.0000   0.2985
  -3.000  -0.4706   0.01323   0.00635   0.0257  1.0000  0.6627  -1.2339   0.0000   0.0000   0.0000   0.3015
  -2.900  -0.4634   0.01317   0.00637   0.0268  1.0000  0.6812  -1.1913   0.0000   0.0000   0.0000   0.3047
  -2.800  -0.4562   0.01311   0.00638   0.0278  1.0000  0.6999  -1.1491   0.0000   0.0000   0.0000   0.3079
  -2.700  -0.4491   0.01307   0.00639   0.0288  1.0000  0.7189  -1.1074   0.0000   0.0000   0.0000   0.3113
  -2.600  -0.4421   0.01304   0.00635   0.0299  1.0000  0.7382  -1.0722   0.0000   0.0000   0.0000   0.3147
  -2.500  -0.4345   0.01302   0.00639   0.0309  1.0000  0.7565  -1.0463   0.0000   0.0000   0.0000   0.3183
  -2.400  -0.4259   0.01302   0.00645   0.0318  1.0000  0.7740  -1.0219   0.0000   0.0000   0.0000   0.3218
  -2.300  -0.4173   0.01304   0.00650   0.0326  1.0000  0.7920  -0.9975   0.0000   0.0000   0.0000   0.3254
  -2.200  -0.4087   0.01306   0.00655   0.0334  1.0000  0.8105  -0.9733   0.0000   0.0000   0.0000   0.3291
  -2.100  -0.3992   0.01310   0.00662   0.0341  1.0000  0.8290  -0.9482   0.0000   0.0000   0.0000   0.3328
  -2.000  -0.3853   0.01321   0.00675   0.0340  1.0000  0.8455  -0.9173   0.0000   0.0000   0.0000   0.3357
  -1.900  -0.3706   0.01333   0.00688   0.0337  1.0000  0.8619  -0.8857   0.0000   0.0000   0.0000   0.3385
  -1.800  -0.3567   0.01345   0.00699   0.0335  1.0000  0.8788  -0.8556   0.0000   0.0000   0.0000   0.3415
  -1.700  -0.3339   0.01367   0.00719   0.0317  1.0000  0.8919  -0.8143   0.0000   0.0000   0.0000   0.3425
  -1.600  -0.3136   0.01386   0.00735   0.0303  1.0000  0.9050  -0.7768   0.0000   0.0000   0.0000   0.3440
  -1.500  -0.2883   0.01409   0.00753   0.0279  1.0000  0.9156  -0.7333   0.0000   0.0000   0.0000   0.3442
  -1.400  -0.2671   0.01427   0.00765   0.0261  1.0000  0.9268  -0.6998   0.0000   0.0000   0.0000   0.3454
  -1.300  -0.2362   0.01449   0.00781   0.0226  1.0000  0.9335  -0.6585   0.0000   0.0000   0.0000   0.3433
  -1.200  -0.2112   0.01467   0.00794   0.0201  1.0000  0.9423  -0.6237   0.0000   0.0000   0.0000   0.3426
  -1.100  -0.1856   0.01480   0.00804   0.0174  1.0000  0.9501  -0.5888   0.0000   0.0000   0.0000   0.3410
  -1.000  -0.1557   0.01490   0.00809   0.0138  1.0000  0.9562  -0.5506   0.0000   0.0000   0.0000   0.3360
  -0.900  -0.1310   0.01499   0.00815   0.0111  1.0000  0.9644  -0.5223   0.0000   0.0000   0.0000   0.3322
  -0.800  -0.1061   0.01504   0.00818   0.0084  1.0000  0.9719  -0.4942   0.0000   0.0000   0.0000   0.3258
  -0.700  -0.0766   0.01502   0.00812   0.0047  1.0000  0.9776  -0.4625   0.0000   0.0000   0.0000   0.3076
  -0.600  -0.0496   0.01500   0.00808   0.0014  1.0000  0.9847  -0.4363   0.0000   0.0000   0.0000   0.2740
  -0.500  -0.0231   0.01498   0.00804  -0.0018  1.0000  0.9911  -0.4113   0.0000   0.0000   0.0000   0.1649
  -0.400   0.0063   0.01486   0.00790  -0.0057  1.0000  0.9969  -0.3845   0.0000   0.0000   0.0000   1.1638
  -0.300   0.0210   0.01478   0.00782  -0.0070  1.0000  1.0000  -0.3731   0.0000   0.0000   0.0000   0.5862
  -0.200   0.0150   0.01473   0.00778  -0.0048  1.0000  1.0000  -0.3733   0.0000   0.0000   0.0000   0.5742
  -0.100   0.0078   0.01470   0.00775  -0.0025  1.0000  1.0000  -0.3727   0.0000   0.0000   0.0000   0.5678
   0.000  -0.0001   0.01469   0.00775   0.0000  1.0000  1.0000  -0.3718   0.0000   0.0000   0.0000   0.3618
   0.100  -0.0079   0.01470   0.00775   0.0025  1.0000  1.0000  -0.3729   0.0000   0.0000   0.0000   0.5635
   0.200  -0.0151   0.01473   0.00778   0.0048  1.0000  1.0000  -0.3735   0.0000   0.0000   0.0000   0.5722
   0.300  -0.0211   0.01478   0.00782   0.0070  1.0000  1.0000  -0.3732   0.0000   0.0000   0.0000   0.5850
   0.400  -0.0063   0.01486   0.00790   0.0057  0.9969  1.0000  -0.3843   0.0000   0.0000   0.0000   1.1592
   0.500   0.0231   0.01498   0.00803   0.0018  0.9911  1.0000  -0.4112   0.0000   0.0000   0.0000   0.1646
   0.600   0.0495   0.01500   0.00808  -0.0014  0.9846  1.0000  -0.4361   0.0000   0.0000   0.0000   0.2739
   0.700   0.0765   0.01502   0.00812  -0.0047  0.9776  1.0000  -0.4626   0.0000   0.0000   0.0000   0.3075
   0.800   0.1060   0.01504   0.00817  -0.0084  0.9719  1.0000  -0.4943   0.0000   0.0000   0.0000   0.3258
   0.900   0.1309   0.01499   0.00815  -0.0111  0.9644  1.0000  -0.5224   0.0000   0.0000   0.0000   0.3321
   1.000   0.1556   0.01490   0.00809  -0.0138  0.9562  1.0000  -0.5508   0.0000   0.0000   0.0000   0.3360
   1.100   0.1855   0.01480   0.00803  -0.0174  0.9501  1.0000  -0.5883   0.0000   0.0000   0.0000   0.3410
   1.200   0.2111   0.01467   0.00794  -0.0201  0.9423  1.0000  -0.6233   0.0000   0.0000   0.0000   0.3426
   1.300   0.2361   0.01449   0.00781  -0.0226  0.9335  1.0000  -0.6579   0.0000   0.0000   0.0000   0.3433
   1.400   0.2670   0.01427   0.00765  -0.0261  0.9268  1.0000  -0.6993   0.0000   0.0000   0.0000   0.3454
   1.500   0.2882   0.01409   0.00753  -0.0279  0.9157  1.0000  -0.7329   0.0000   0.0000   0.0000   0.3442
   1.600   0.3135   0.01386   0.00735  -0.0302  0.9051  1.0000  -0.7763   0.0000   0.0000   0.0000   0.3440
   1.700   0.3338   0.01367   0.00719  -0.0317  0.8920  1.0000  -0.8139   0.0000   0.0000   0.0000   0.3425
   1.800   0.3565   0.01345   0.00699  -0.0335  0.8789  1.0000  -0.8550   0.0000   0.0000   0.0000   0.3415
   1.900   0.3705   0.01333   0.00688  -0.0337  0.8620  1.0000  -0.8853   0.0000   0.0000   0.0000   0.3385
   2.000   0.3853   0.01321   0.00675  -0.0340  0.8457  1.0000  -0.9169   0.0000   0.0000   0.0000   0.3357
   2.100   0.3992   0.01310   0.00662  -0.0341  0.8292  1.0000  -0.9479   0.0000   0.0000   0.0000   0.3328
   2.200   0.4085   0.01306   0.00655  -0.0334  0.8107  1.0000  -0.9729   0.0000   0.0000   0.0000   0.3291
   2.300   0.4172   0.01303   0.00650  -0.0326  0.7922  1.0000  -0.9971   0.0000   0.0000   0.0000   0.3254
   2.400   0.4259   0.01302   0.00645  -0.0318  0.7742  1.0000  -1.0215   0.0000   0.0000   0.0000   0.3219
   2.500   0.4345   0.01302   0.00639  -0.0309  0.7567  1.0000  -1.0460   0.0000   0.0000   0.0000   0.3183
   2.600   0.4420   0.01304   0.00635  -0.0299  0.7383  1.0000  -1.0734   0.0000   0.0000   0.0000   0.3147
   2.700   0.4490   0.01307   0.00639  -0.0288  0.7191  1.0000  -1.1068   0.0000   0.0000   0.0000   0.3113
   2.800   0.4562   0.01311   0.00638  -0.0278  0.7000  1.0000  -1.1486   0.0000   0.0000   0.0000   0.3079
   2.900   0.4634   0.01317   0.00636  -0.0268  0.6813  1.0000  -1.1907   0.0000   0.0000   0.0000   0.3047
   3.000   0.4706   0.01323   0.00635  -0.0257  0.6629  1.0000  -1.2333   0.0000   0.0000   0.0000   0.3015
   3.100   0.4776   0.01331   0.00635  -0.0247  0.6439  1.0000  -1.2756   0.0000   0.0000   0.0000   0.2985
   3.200   0.4845   0.01340   0.00638  -0.0237  0.6240  1.0000  -1.3176   0.0000   0.0000   0.0000   0.2956
   3.300   0.4914   0.01350   0.00641  -0.0227  0.6043  1.0000  -1.3601   0.0000   0.0000   0.0000   0.2928
   3.400   0.4983   0.01361   0.00645  -0.0217  0.5847  1.0000  -1.4031   0.0000   0.0000   0.0000   0.2901
   3.500   0.5053   0.01373   0.00648  -0.0207  0.5655  1.0000  -1.4464   0.0000   0.0000   0.0000   0.2875
   3.600   0.5122   0.01388   0.00652  -0.0197  0.5466  1.0000  -1.4900   0.0000   0.0000   0.0000   0.2850
   3.700   0.5191   0.01402   0.00658  -0.0188  0.5270  1.0000  -1.5336   0.0000   0.0000   0.0000   0.2826
   3.800   0.5260   0.01417   0.00666  -0.0179  0.5068  1.0000  -1.5773   0.0000   0.0000   0.0000   0.2803
   3.900   0.5329   0.01433   0.00674  -0.0170  0.4870  1.0000  -1.6213   0.0000   0.0000   0.0000   0.2781
   4.000   0.5398   0.01450   0.00684  -0.0161  0.4678  1.0000  -1.6657   0.0000   0.0000   0.0000   0.2759
   4.100   0.5468   0.01470   0.00693  -0.0152  0.4493  1.0000  -1.7102   0.0000   0.0000   0.0000   0.2739
   4.300   0.5607   0.01510   0.00717  -0.0135  0.4127  1.0000  -1.7999   0.0000   0.0000   0.0000   0.2700
   4.400   0.5677   0.01531   0.00731  -0.0127  0.3941  1.0000  -1.8449   0.0000   0.0000   0.0000   0.2682
   4.500   0.5746   0.01554   0.00745  -0.0118  0.3764  1.0000  -1.8899   0.0000   0.0000   0.0000   0.2664
   4.600   0.5814   0.01580   0.00758  -0.0110  0.3597  1.0000  -1.9352   0.0000   0.0000   0.0000   0.2646
   4.700   0.5884   0.01602   0.00782  -0.0102  0.3420  1.0000  -1.9803   0.0000   0.0000   0.0000   0.2630
   4.800   0.5955   0.01626   0.00801  -0.0094  0.3249  1.0000  -2.0287   0.0000   0.0000   0.0000   0.2614
   4.900   0.6024   0.01655   0.00819  -0.0086  0.3098  1.0000  -2.0846   0.0000   0.0000   0.0000   0.2598
   5.000   0.6095   0.01683   0.00839  -0.0079  0.2951  1.0000  -2.1409   0.0000   0.0000   0.0000   0.2583
   5.100   0.6169   0.01712   0.00865  -0.0072  0.2805  1.0000  -2.1968   0.0000   0.0000   0.0000   0.2569
   5.200   0.6239   0.01750   0.00887  -0.0064  0.2683  1.0000  -2.2603   0.0000   0.0000   0.0000   0.2555
   5.300   0.6315   0.01774   0.00916  -0.0057  0.2544  1.0000  -2.3283   0.0000   0.0000   0.0000   0.2542
   5.400   0.6386   0.01813   0.00943  -0.0050  0.2429  1.0000  -2.3968   0.0000   0.0000   0.0000   0.2529
   5.500   0.6460   0.01838   0.00970  -0.0043  0.2303  1.0000  -2.4660   0.0000   0.0000   0.0000   0.2516
   5.600   0.6531   0.01878   0.00999  -0.0036  0.2194  1.0000  -2.5354   0.0000   0.0000   0.0000   0.2504
   5.700   0.6605   0.01901   0.01025  -0.0029  0.2078  1.0000  -2.6057   0.0000   0.0000   0.0000   0.2492
   5.800   0.6676   0.01948   0.01058  -0.0022  0.1982  1.0000  -2.6759   0.0000   0.0000   0.0000   0.2480
   5.900   0.6754   0.01975   0.01094  -0.0015  0.1884  1.0000  -2.7445   0.0000   0.0000   0.0000   0.2469
   6.000   0.6826   0.02014   0.01123  -0.0008  0.1799  1.0000  -2.8161   0.0000   0.0000   0.0000   0.2458
   6.100   0.6902   0.02057   0.01168  -0.0002  0.1710  1.0000  -2.8834   0.0000   0.0000   0.0000   0.2447
   6.200   0.6975   0.02082   0.01193   0.0006  0.1619  1.0000  -2.9552   0.0000   0.0000   0.0000   0.2436
   6.300   0.7044   0.02143   0.01238   0.0011  0.1535  1.0000  -3.0259   0.0000   0.0000   0.0000   0.2427
   6.400   0.7118   0.02161   0.01272   0.0019  0.1453  1.0000  -3.0933   0.0000   0.0000   0.0000   0.2416
   6.500   0.7190   0.02194   0.01301   0.0026  0.1378  1.0000  -3.1642   0.0000   0.0000   0.0000   0.2405
   6.600   0.7261   0.02269   0.01364   0.0032  0.1304  1.0000  -3.2295   0.0000   0.0000   0.0000   0.2397
   6.700   0.7333   0.02289   0.01400   0.0040  0.1230  1.0000  -3.2942   0.0000   0.0000   0.0000   0.2385
   6.800   0.7401   0.02315   0.01422   0.0047  0.1159  1.0000  -3.3666   0.0000   0.0000   0.0000   0.2375
   6.900   0.7468   0.02407   0.01500   0.0053  0.1091  1.0000  -3.4282   0.0000   0.0000   0.0000   0.2368
   7.000   0.7544   0.02442   0.01560   0.0061  0.1040  1.0000  -3.4870   0.0000   0.0000   0.0000   0.2357
   7.100   0.7619   0.02491   0.01616   0.0068  0.0989  1.0000  -3.5452   0.0000   0.0000   0.0000   0.2347
   7.200   0.7692   0.02541   0.01664   0.0075  0.0945  1.0000  -3.6085   0.0000   0.0000   0.0000   0.2338
   7.300   0.7765   0.02629   0.01745   0.0080  0.0905  1.0000  -3.6671   0.0000   0.0000   0.0000   0.2331
   7.400   0.7839   0.02769   0.01892   0.0086  0.0873  1.0000  -3.7009   0.0000   0.0000   0.0000   0.2324
   7.500   0.7914   0.02828   0.01967   0.0094  0.0850  1.0000  -3.7467   0.0000   0.0000   0.0000   0.2314
   7.600   0.7988   0.02903   0.02056   0.0102  0.0827  1.0000  -3.7891   0.0000   0.0000   0.0000   0.2304
   7.700   0.8059   0.02984   0.02150   0.0110  0.0806  1.0000  -3.8301   0.0000   0.0000   0.0000   0.2295
   7.800   0.8128   0.03069   0.02247   0.0118  0.0787  1.0000  -3.8700   0.0000   0.0000   0.0000   0.2286
   7.900   0.8193   0.03148   0.02337   0.0126  0.0769  1.0000  -3.9171   0.0000   0.0000   0.0000   0.2277
   8.000   0.8257   0.03210   0.02405   0.0133  0.0747  1.0000  -3.9874   0.0000   0.0000   0.0000   0.2269
   8.100   0.8323   0.03261   0.02454   0.0139  0.0723  1.0000  -4.0716   0.0000   0.0000   0.0000   0.2262
   8.200   0.8380   0.03360   0.02549   0.0144  0.0697  1.0000  -4.1463   0.0000   0.0000   0.0000   0.2256
   8.300   0.8390   0.03607   0.02812   0.0153  0.0676  1.0000  -4.1492   0.0000   0.0000   0.0000   0.2245
   8.400   0.8434   0.03664   0.02884   0.0163  0.0665  1.0000  -4.2007   0.0000   0.0000   0.0000   0.2233
   8.500   0.8479   0.03746   0.02983   0.0173  0.0657  1.0000  -4.2427   0.0000   0.0000   0.0000   0.2222
   8.600   0.8515   0.03847   0.03103   0.0183  0.0650  1.0000  -4.2745   0.0000   0.0000   0.0000   0.2210
   8.700   0.8544   0.03960   0.03233   0.0193  0.0643  1.0000  -4.2991   0.0000   0.0000   0.0000   0.2197
   8.800   0.8565   0.04081   0.03373   0.0204  0.0637  1.0000  -4.3169   0.0000   0.0000   0.0000   0.2185
   8.900   0.8578   0.04211   0.03520   0.0215  0.0632  1.0000  -4.3283   0.0000   0.0000   0.0000   0.2171
   9.000   0.8583   0.04348   0.03674   0.0227  0.0627  1.0000  -4.3336   0.0000   0.0000   0.0000   0.2157
   9.100   0.8579   0.04490   0.03835   0.0238  0.0624  1.0000  -4.3330   0.0000   0.0000   0.0000   0.2143
   9.200   0.8565   0.04639   0.04000   0.0250  0.0621  1.0000  -4.3268   0.0000   0.0000   0.0000   0.2129
   9.300   0.8543   0.04792   0.04169   0.0261  0.0619  1.0000  -4.3152   0.0000   0.0000   0.0000   0.2114
   9.400   0.8511   0.04950   0.04341   0.0273  0.0618  1.0000  -4.2986   0.0000   0.0000   0.0000   0.2099
   9.500   0.8470   0.05110   0.04516   0.0284  0.0618  1.0000  -4.2775   0.0000   0.0000   0.0000   0.2083
   9.600   0.8421   0.05273   0.04692   0.0295  0.0619  1.0000  -4.2524   0.0000   0.0000   0.0000   0.2068
   9.700   0.8363   0.05438   0.04868   0.0305  0.0620  1.0000  -4.2239   0.0000   0.0000   0.0000   0.2052
   9.800   0.8296   0.05602   0.05043   0.0315  0.0621  1.0000  -4.1924   0.0000   0.0000   0.0000   0.2036
   9.900   0.8221   0.05765   0.05215   0.0325  0.0623  1.0000  -4.1583   0.0000   0.0000   0.0000   0.2019
  10.000   0.8135   0.05919   0.05377   0.0336  0.0625  1.0000  -4.1226   0.0000   0.0000   0.0000   0.2001
  10.100   0.8038   0.06063   0.05527   0.0347  0.0627  1.0000  -4.0861   0.0000   0.0000   0.0000   0.1981
  10.200   0.7937   0.06214   0.05683   0.0356  0.0630  1.0000  -4.0471   0.0000   0.0000   0.0000   0.1963
  10.300   0.7834   0.06378   0.05851   0.0361  0.0632  1.0000  -4.0048   0.0000   0.0000   0.0000   0.1950
  10.400   0.7729   0.06556   0.06035   0.0362  0.0635  1.0000  -3.9585   0.0000   0.0000   0.0000   0.1941
  10.500   0.7623   0.06754   0.06236   0.0358  0.0638  1.0000  -3.9077   0.0000   0.0000   0.0000   0.1938
  10.600   0.7515   0.06974   0.06459   0.0349  0.0642  1.0000  -3.8516   0.0000   0.0000   0.0000   0.1941
  10.700   0.7407   0.07218   0.06707   0.0337  0.0646  1.0000  -3.7899   0.0000   0.0000   0.0000   0.1950
  10.800   0.7300   0.07490   0.06980   0.0321  0.0650  1.0000  -3.7224   0.0000   0.0000   0.0000   0.1964
  10.900   0.7197   0.07787   0.07278   0.0303  0.0655  1.0000  -3.6503   0.0000   0.0000   0.0000   0.1981
  11.000   0.7102   0.08103   0.07595   0.0284  0.0660  1.0000  -3.5767   0.0000   0.0000   0.0000   0.2001
  11.100   0.7022   0.08428   0.07919   0.0267  0.0665  1.0000  -3.5074   0.0000   0.0000   0.0000   0.2019
  11.200   0.6990   0.08752   0.08240   0.0264  0.0673  1.0000  -3.4657   0.0000   0.0000   0.0000   0.2021
  11.400   0.6499   0.12036   0.11529   0.0094  0.1316  1.0000  -2.3385   0.0000   0.0000   0.0000   0.2267
  11.500   0.6447   0.12238   0.11727   0.0078  0.1314  1.0000  -2.2949   0.0000   0.0000   0.0000   0.2289
  11.600   0.6382   0.12424   0.11910   0.0061  0.1313  1.0000  -2.2443   0.0000   0.0000   0.0000   0.2314
  11.700   0.6301   0.12585   0.12067   0.0040  0.1309  1.0000  -2.1835   0.0000   0.0000   0.0000   0.2345
  11.800   0.6129   0.12675   0.12144   0.0004  0.1294  1.0000  -2.0662   0.0000   0.0000   0.0000   0.2401
  11.900   0.6018   0.12802   0.12266  -0.0023  0.1265  1.0000  -1.9844   0.0000   0.0000   0.0000   0.2443
  12.000   0.5991   0.12962   0.12424  -0.0034  0.1246  1.0000  -1.9583   0.0000   0.0000   0.0000   0.2461
  12.100   0.5982   0.13121   0.12582  -0.0042  0.1229  1.0000  -1.9449   0.0000   0.0000   0.0000   0.2474
  12.200   0.5984   0.13276   0.12737  -0.0048  0.1212  1.0000  -1.9395   0.0000   0.0000   0.0000   0.2483
  12.300   0.5996   0.13427   0.12888  -0.0052  0.1195  1.0000  -1.9410   0.0000   0.0000   0.0000   0.2489
  12.400   0.6016   0.13574   0.13035  -0.0055  0.1179  1.0000  -1.9493   0.0000   0.0000   0.0000   0.2493
  12.500   0.6048   0.13719   0.13180  -0.0056  0.1165  1.0000  -1.9651   0.0000   0.0000   0.0000   0.2493
  12.600   0.6092   0.13865   0.13333  -0.0055  0.1151  1.0000  -1.9880   0.0000   0.0000   0.0000   0.2490
  12.700   0.6154   0.14016   0.13486  -0.0051  0.1138  1.0000  -2.0230   0.0000   0.0000   0.0000   0.2482
  12.800   0.6238   0.14185   0.13657  -0.0043  0.1126  1.0000  -2.0741   0.0000   0.0000   0.0000   0.2467
  12.900   0.6490   0.14804   0.14282   0.0001  0.1096  1.0000  -2.2376   0.0000   0.0000   0.0000   0.2398
  13.000   0.6462   0.14957   0.14432  -0.0013  0.1095  1.0000  -2.2034   0.0000   0.0000   0.0000   0.2417
  13.100   0.6422   0.15098   0.14572  -0.0027  0.1093  1.0000  -2.1620   0.0000   0.0000   0.0000   0.2440
  13.200   0.6378   0.15222   0.14693  -0.0043  0.1091  1.0000  -2.1176   0.0000   0.0000   0.0000   0.2464
  13.300   0.6326   0.15325   0.14793  -0.0060  0.1087  1.0000  -2.0678   0.0000   0.0000   0.0000   0.2490
  13.400   0.6262   0.15412   0.14877  -0.0080  0.1081  1.0000  -2.0095   0.0000   0.0000   0.0000   0.2522
  13.500   0.6193   0.15489   0.14951  -0.0101  0.1070  1.0000  -1.9475   0.0000   0.0000   0.0000   0.2555
  13.600   0.6138   0.15573   0.15032  -0.0118  0.1051  1.0000  -1.8981   0.0000   0.0000   0.0000   0.2583
  13.700   0.6118   0.15685   0.15143  -0.0130  0.1027  1.0000  -1.8721   0.0000   0.0000   0.0000   0.2602
  13.800   0.6123   0.15810   0.15267  -0.0136  0.0999  1.0000  -1.8661   0.0000   0.0000   0.0000   0.2612
  13.900   0.6151   0.15929   0.15387  -0.0139  0.0968  1.0000  -1.8804   0.0000   0.0000   0.0000   0.2614
  14.000   0.6220   0.16042   0.15501  -0.0134  0.0936  1.0000  -1.9316   0.0000   0.0000   0.0000   0.2602
  14.100   0.6339   0.16213   0.15675  -0.0121  0.0913  1.0000  -2.0140   0.0000   0.0000   0.0000   0.2577
  14.200   0.6466   0.16451   0.15917  -0.0106  0.0899  1.0000  -2.0987   0.0000   0.0000   0.0000   0.2549
  14.300   0.6600   0.17165   0.16631  -0.0084  0.0882  1.0000  -2.1745   0.0000   0.0000   0.0000   0.2514
  14.400   0.6603   0.17327   0.16793  -0.0094  0.0881  1.0000  -2.1542   0.0000   0.0000   0.0000   0.2527
  14.500   0.6605   0.17482   0.16947  -0.0103  0.0880  1.0000  -2.1338   0.0000   0.0000   0.0000   0.2540
  14.600   0.6597   0.17624   0.17088  -0.0114  0.0879  1.0000  -2.1070   0.0000   0.0000   0.0000   0.2556
  14.700   0.6585   0.17754   0.17216  -0.0126  0.0878  1.0000  -2.0775   0.0000   0.0000   0.0000   0.2574
  14.800   0.6570   0.17868   0.17329  -0.0138  0.0876  1.0000  -2.0461   0.0000   0.0000   0.0000   0.2592
  14.900   0.6551   0.17963   0.17423  -0.0152  0.0874  1.0000  -2.0108   0.0000   0.0000   0.0000   0.2612
  15.000   0.6519   0.18030   0.17487  -0.0168  0.0870  1.0000  -1.9673   0.0000   0.0000   0.0000   0.2636


