xflr5 v6.61

 Calculated polar for: SD8020-010-88

 1 1 Reynolds number fixed          Mach number fixed         

 xtrf =   1.000 (top)        1.000 (bottom)
 Mach =   0.000     Re =     0.225 e 6     Ncrit =   9.000

  alpha     CL        CD       CDp       Cm    Top Xtr Bot Xtr   Cpmin    Chinge    XCp    
 ------- -------- --------- --------- -------- ------- ------- -------- --------- ---------
 -10.000  -0.9367   0.03562   0.03020  -0.0265  1.0000  0.0254  -5.8311   0.0000   0.0000   0.0000   0.2124
  -9.900  -0.9352   0.03468   0.02915  -0.0254  1.0000  0.0257  -5.7994   0.0000   0.0000   0.0000   0.2136
  -9.800  -0.9330   0.03378   0.02815  -0.0243  1.0000  0.0261  -5.7627   0.0000   0.0000   0.0000   0.2148
  -9.700  -0.9304   0.03290   0.02716  -0.0233  1.0000  0.0266  -5.7223   0.0000   0.0000   0.0000   0.2160
  -9.600  -0.9273   0.03205   0.02621  -0.0223  1.0000  0.0270  -5.6780   0.0000   0.0000   0.0000   0.2171
  -9.500  -0.9237   0.03122   0.02522  -0.0213  1.0000  0.0275  -5.6276   0.0000   0.0000   0.0000   0.2182
  -9.400  -0.9197   0.03044   0.02434  -0.0203  1.0000  0.0281  -5.5757   0.0000   0.0000   0.0000   0.2192
  -9.300  -0.9152   0.02970   0.02350  -0.0194  1.0000  0.0287  -5.5194   0.0000   0.0000   0.0000   0.2202
  -9.200  -0.9102   0.02901   0.02271  -0.0185  1.0000  0.0293  -5.4582   0.0000   0.0000   0.0000   0.2212
  -9.100  -0.9049   0.02837   0.02198  -0.0177  1.0000  0.0298  -5.3916   0.0000   0.0000   0.0000   0.2221
  -9.000  -0.8991   0.02782   0.02134  -0.0168  1.0000  0.0304  -5.3190   0.0000   0.0000   0.0000   0.2230
  -8.900  -0.8929   0.02735   0.02078  -0.0161  1.0000  0.0309  -5.2396   0.0000   0.0000   0.0000   0.2238
  -8.800  -0.8859   0.02710   0.02047  -0.0154  1.0000  0.0314  -5.1452   0.0000   0.0000   0.0000   0.2246
  -8.700  -0.8795   0.02676   0.02007  -0.0146  1.0000  0.0321  -5.0558   0.0000   0.0000   0.0000   0.2254
  -8.600  -0.8793   0.02444   0.01755  -0.0133  1.0000  0.0340  -5.0780   0.0000   0.0000   0.0000   0.2270
  -8.500  -0.8747   0.02356   0.01662  -0.0124  1.0000  0.0356  -5.0131   0.0000   0.0000   0.0000   0.2280
  -8.400  -0.8685   0.02311   0.01615  -0.0116  1.0000  0.0369  -4.9217   0.0000   0.0000   0.0000   0.2289
  -8.300  -0.8618   0.02274   0.01577  -0.0109  1.0000  0.0381  -4.8264   0.0000   0.0000   0.0000   0.2297
  -8.200  -0.8549   0.02236   0.01536  -0.0102  1.0000  0.0392  -4.7346   0.0000   0.0000   0.0000   0.2305
  -8.100  -0.8480   0.02193   0.01489  -0.0095  1.0000  0.0402  -4.6464   0.0000   0.0000   0.0000   0.2313
  -8.000  -0.8409   0.02150   0.01441  -0.0088  1.0000  0.0413  -4.5589   0.0000   0.0000   0.0000   0.2322
  -7.900  -0.8337   0.02108   0.01394  -0.0081  1.0000  0.0423  -4.4716   0.0000   0.0000   0.0000   0.2331
  -7.800  -0.8265   0.02067   0.01347  -0.0074  1.0000  0.0434  -4.3842   0.0000   0.0000   0.0000   0.2339
  -7.700  -0.8192   0.02027   0.01303  -0.0067  1.0000  0.0446  -4.2964   0.0000   0.0000   0.0000   0.2348
  -7.600  -0.8118   0.01991   0.01261  -0.0060  1.0000  0.0457  -4.2074   0.0000   0.0000   0.0000   0.2357
  -7.500  -0.8041   0.01963   0.01228  -0.0053  1.0000  0.0468  -4.1129   0.0000   0.0000   0.0000   0.2365
  -7.400  -0.7957   0.01950   0.01211  -0.0048  1.0000  0.0479  -4.0209   0.0000   0.0000   0.0000   0.2372
  -7.300  -0.7907   0.01869   0.01126  -0.0037  1.0000  0.0502  -3.9759   0.0000   0.0000   0.0000   0.2386
  -7.200  -0.7864   0.01795   0.01054  -0.0026  1.0000  0.0537  -3.9284   0.0000   0.0000   0.0000   0.2401
  -7.100  -0.7797   0.01759   0.01020  -0.0018  1.0000  0.0568  -3.8563   0.0000   0.0000   0.0000   0.2412
  -7.000  -0.7724   0.01730   0.00990  -0.0011  1.0000  0.0601  -3.7822   0.0000   0.0000   0.0000   0.2422
  -6.900  -0.7649   0.01702   0.00959  -0.0004  1.0000  0.0639  -3.7099   0.0000   0.0000   0.0000   0.2432
  -6.800  -0.7565   0.01686   0.00936   0.0002  1.0000  0.0670  -3.6301   0.0000   0.0000   0.0000   0.2441
  -6.700  -0.7526   0.01614   0.00863   0.0015  1.0000  0.0739  -3.5826   0.0000   0.0000   0.0000   0.2458
  -6.600  -0.7455   0.01585   0.00839   0.0022  1.0000  0.0798  -3.5061   0.0000   0.0000   0.0000   0.2469
  -6.500  -0.7374   0.01567   0.00817   0.0027  1.0000  0.0853  -3.4242   0.0000   0.0000   0.0000   0.2478
  -6.400  -0.7296   0.01545   0.00791   0.0034  1.0000  0.0901  -3.3458   0.0000   0.0000   0.0000   0.2488
  -6.300  -0.7235   0.01506   0.00760   0.0042  1.0000  0.0971  -3.2747   0.0000   0.0000   0.0000   0.2501
  -6.200  -0.7156   0.01486   0.00741   0.0048  1.0000  0.1030  -3.1924   0.0000   0.0000   0.0000   0.2511
  -6.100  -0.7071   0.01473   0.00724   0.0054  1.0000  0.1082  -3.1079   0.0000   0.0000   0.0000   0.2520
  -6.000  -0.7000   0.01445   0.00697   0.0061  1.0000  0.1144  -3.0326   0.0000   0.0000   0.0000   0.2532
  -5.900  -0.6927   0.01421   0.00679   0.0067  1.0000  0.1212  -2.9538   0.0000   0.0000   0.0000   0.2543
  -5.800  -0.6845   0.01405   0.00662   0.0073  1.0000  0.1278  -2.8720   0.0000   0.0000   0.0000   0.2554
  -5.700  -0.6765   0.01388   0.00644   0.0079  1.0000  0.1343  -2.7921   0.0000   0.0000   0.0000   0.2564
  -5.600  -0.6693   0.01363   0.00627   0.0086  1.0000  0.1428  -2.7154   0.0000   0.0000   0.0000   0.2576
  -5.500  -0.6610   0.01350   0.00614   0.0091  1.0000  0.1517  -2.6340   0.0000   0.0000   0.0000   0.2587
  -5.400  -0.6537   0.01328   0.00598   0.0097  1.0000  0.1613  -2.5577   0.0000   0.0000   0.0000   0.2599
  -5.300  -0.6459   0.01312   0.00586   0.0103  1.0000  0.1718  -2.4797   0.0000   0.0000   0.0000   0.2611
  -5.200  -0.6382   0.01293   0.00571   0.0109  1.0000  0.1822  -2.4038   0.0000   0.0000   0.0000   0.2623
  -5.100  -0.6306   0.01275   0.00559   0.0116  1.0000  0.1935  -2.3286   0.0000   0.0000   0.0000   0.2636
  -5.000  -0.6229   0.01258   0.00545   0.0122  1.0000  0.2046  -2.2541   0.0000   0.0000   0.0000   0.2649
  -4.900  -0.6153   0.01240   0.00533   0.0128  1.0000  0.2170  -2.1873   0.0000   0.0000   0.0000   0.2662
  -4.800  -0.6077   0.01223   0.00521   0.0134  1.0000  0.2292  -2.1266   0.0000   0.0000   0.0000   0.2676
  -4.700  -0.6000   0.01208   0.00510   0.0140  1.0000  0.2424  -2.0655   0.0000   0.0000   0.0000   0.2690
  -4.600  -0.5926   0.01190   0.00499   0.0147  1.0000  0.2553  -2.0157   0.0000   0.0000   0.0000   0.2704
  -4.400  -0.5775   0.01160   0.00475   0.0160  1.0000  0.2825  -1.9187   0.0000   0.0000   0.0000   0.2735
  -4.300  -0.5698   0.01147   0.00465   0.0166  1.0000  0.2959  -1.8701   0.0000   0.0000   0.0000   0.2750
  -4.200  -0.5623   0.01133   0.00457   0.0173  1.0000  0.3100  -1.8222   0.0000   0.0000   0.0000   0.2766
  -4.100  -0.5548   0.01120   0.00450   0.0179  1.0000  0.3235  -1.7747   0.0000   0.0000   0.0000   0.2783
  -4.000  -0.5470   0.01110   0.00443   0.0185  1.0000  0.3381  -1.7266   0.0000   0.0000   0.0000   0.2799
  -3.900  -0.5398   0.01096   0.00437   0.0192  1.0000  0.3523  -1.6804   0.0000   0.0000   0.0000   0.2817
  -3.800  -0.5322   0.01085   0.00431   0.0199  1.0000  0.3668  -1.6337   0.0000   0.0000   0.0000   0.2835
  -3.700  -0.5248   0.01075   0.00426   0.0205  1.0000  0.3823  -1.5875   0.0000   0.0000   0.0000   0.2854
  -3.600  -0.5176   0.01063   0.00421   0.0213  1.0000  0.3978  -1.5424   0.0000   0.0000   0.0000   0.2874
  -3.500  -0.5104   0.01053   0.00417   0.0219  1.0000  0.4141  -1.4973   0.0000   0.0000   0.0000   0.2894
  -3.400  -0.5031   0.01045   0.00414   0.0226  1.0000  0.4314  -1.4526   0.0000   0.0000   0.0000   0.2915
  -3.300  -0.4962   0.01034   0.00411   0.0234  1.0000  0.4483  -1.4092   0.0000   0.0000   0.0000   0.2937
  -3.200  -0.4893   0.01024   0.00409   0.0242  1.0000  0.4650  -1.3659   0.0000   0.0000   0.0000   0.2960
  -3.100  -0.4822   0.01017   0.00407   0.0249  1.0000  0.4820  -1.3227   0.0000   0.0000   0.0000   0.2984
  -3.000  -0.4753   0.01009   0.00406   0.0257  1.0000  0.4990  -1.2803   0.0000   0.0000   0.0000   0.3008
  -2.900  -0.4686   0.01001   0.00405   0.0265  1.0000  0.5151  -1.2385   0.0000   0.0000   0.0000   0.3033
  -2.800  -0.4617   0.00994   0.00405   0.0272  1.0000  0.5317  -1.1969   0.0000   0.0000   0.0000   0.3059
  -2.600  -0.4485   0.00981   0.00407   0.0289  1.0000  0.5670  -1.1153   0.0000   0.0000   0.0000   0.3114
  -2.500  -0.4409   0.00975   0.00405   0.0295  0.9997  0.5850  -1.0730   0.0000   0.0000   0.0000   0.3140
  -2.400  -0.4246   0.00971   0.00409   0.0284  0.9972  0.6076  -1.0385   0.0000   0.0000   0.0000   0.3140
  -2.300  -0.4083   0.00968   0.00415   0.0273  0.9943  0.6291  -1.0042   0.0000   0.0000   0.0000   0.3141
  -2.200  -0.3917   0.00966   0.00421   0.0262  0.9916  0.6504  -0.9698   0.0000   0.0000   0.0000   0.3141
  -2.100  -0.3749   0.00965   0.00428   0.0250  0.9893  0.6713  -0.9353   0.0000   0.0000   0.0000   0.3140
  -2.000  -0.3608   0.00957   0.00427   0.0245  0.9860  0.6907  -0.9045   0.0000   0.0000   0.0000   0.3151
  -1.900  -0.3460   0.00951   0.00428   0.0238  0.9826  0.7094  -0.8730   0.0000   0.0000   0.0000   0.3161
  -1.800  -0.3305   0.00946   0.00430   0.0230  0.9793  0.7274  -0.8408   0.0000   0.0000   0.0000   0.3169
  -1.700  -0.3141   0.00943   0.00433   0.0220  0.9763  0.7450  -0.8078   0.0000   0.0000   0.0000   0.3175
  -1.600  -0.2969   0.00940   0.00435   0.0208  0.9736  0.7624  -0.7742   0.0000   0.0000   0.0000   0.3177
  -1.500  -0.2791   0.00938   0.00439   0.0196  0.9714  0.7790  -0.7400   0.0000   0.0000   0.0000   0.3178
  -1.400  -0.2604   0.00936   0.00440   0.0182  0.9696  0.7945  -0.7060   0.0000   0.0000   0.0000   0.3175
  -1.300  -0.2495   0.00928   0.00436   0.0184  0.9648  0.8089  -0.6849   0.0000   0.0000   0.0000   0.3215
  -1.200  -0.2349   0.00923   0.00436   0.0179  0.9609  0.8229  -0.6602   0.0000   0.0000   0.0000   0.3240
  -1.100  -0.2185   0.00920   0.00436   0.0171  0.9576  0.8363  -0.6340   0.0000   0.0000   0.0000   0.3258
  -1.000  -0.2010   0.00917   0.00437   0.0160  0.9547  0.8498  -0.6068   0.0000   0.0000   0.0000   0.3272
  -0.900  -0.1817   0.00916   0.00439   0.0145  0.9525  0.8614  -0.5781   0.0000   0.0000   0.0000   0.3277
  -0.800  -0.1619   0.00915   0.00440   0.0130  0.9505  0.8728  -0.5511   0.0000   0.0000   0.0000   0.3279
  -0.700  -0.1407   0.00916   0.00443   0.0111  0.9489  0.8825  -0.5255   0.0000   0.0000   0.0000   0.3270
  -0.600  -0.1184   0.00917   0.00446   0.0091  0.9476  0.8910  -0.4991   0.0000   0.0000   0.0000   0.3246
  -0.500  -0.1053   0.00916   0.00445   0.0089  0.9424  0.9012  -0.4806   0.0000   0.0000   0.0000   0.3326
  -0.400  -0.0839   0.00919   0.00449   0.0071  0.9395  0.9068  -0.4571   0.0000   0.0000   0.0000   0.3323
  -0.300  -0.0626   0.00921   0.00451   0.0053  0.9366  0.9125  -0.4353   0.0000   0.0000   0.0000   0.3318
  -0.200  -0.0429   0.00920   0.00450   0.0037  0.9333  0.9188  -0.4147   0.0000   0.0000   0.0000   0.3350
  -0.100  -0.0237   0.00917   0.00447   0.0023  0.9299  0.9249  -0.3947   0.0000   0.0000   0.0000   0.3465
   0.000   0.0001   0.00918   0.00448  -0.0000  0.9275  0.9275  -0.3734   0.0000   0.0000   0.0000   0.4630
   0.100   0.0239   0.00917   0.00447  -0.0024  0.9249  0.9300  -0.3947   0.0000   0.0000   0.0000   0.3473
   0.200   0.0430   0.00920   0.00450  -0.0038  0.9187  0.9333  -0.4146   0.0000   0.0000   0.0000   0.3355
   0.300   0.0628   0.00921   0.00451  -0.0053  0.9125  0.9366  -0.4352   0.0000   0.0000   0.0000   0.3321
   0.400   0.0841   0.00919   0.00449  -0.0071  0.9068  0.9395  -0.4570   0.0000   0.0000   0.0000   0.3325
   0.500   0.1055   0.00916   0.00445  -0.0090  0.9012  0.9424  -0.4810   0.0000   0.0000   0.0000   0.3328
   0.600   0.1186   0.00917   0.00446  -0.0091  0.8910  0.9476  -0.4996   0.0000   0.0000   0.0000   0.3248
   0.700   0.1409   0.00916   0.00443  -0.0112  0.8825  0.9489  -0.5260   0.0000   0.0000   0.0000   0.3271
   0.800   0.1621   0.00915   0.00440  -0.0130  0.8728  0.9505  -0.5515   0.0000   0.0000   0.0000   0.3280
   0.900   0.1818   0.00916   0.00439  -0.0146  0.8614  0.9525  -0.5779   0.0000   0.0000   0.0000   0.3278
   1.000   0.2011   0.00917   0.00437  -0.0160  0.8499  0.9548  -0.6066   0.0000   0.0000   0.0000   0.3273
   1.100   0.2187   0.00920   0.00436  -0.0171  0.8364  0.9576  -0.6337   0.0000   0.0000   0.0000   0.3259
   1.200   0.2350   0.00923   0.00436  -0.0180  0.8230  0.9610  -0.6599   0.0000   0.0000   0.0000   0.3241
   1.300   0.2495   0.00928   0.00436  -0.0184  0.8090  0.9649  -0.6845   0.0000   0.0000   0.0000   0.3215
   1.400   0.2607   0.00936   0.00440  -0.0183  0.7946  0.9697  -0.7059   0.0000   0.0000   0.0000   0.3176
   1.500   0.2794   0.00938   0.00439  -0.0197  0.7791  0.9715  -0.7400   0.0000   0.0000   0.0000   0.3179
   1.600   0.2972   0.00940   0.00435  -0.0209  0.7625  0.9737  -0.7742   0.0000   0.0000   0.0000   0.3179
   1.700   0.3143   0.00943   0.00433  -0.0220  0.7451  0.9764  -0.8077   0.0000   0.0000   0.0000   0.3176
   1.800   0.3307   0.00946   0.00430  -0.0230  0.7275  0.9794  -0.8407   0.0000   0.0000   0.0000   0.3170
   1.900   0.3462   0.00951   0.00428  -0.0238  0.7094  0.9827  -0.8728   0.0000   0.0000   0.0000   0.3162
   2.000   0.3609   0.00957   0.00426  -0.0245  0.6907  0.9861  -0.9042   0.0000   0.0000   0.0000   0.3152
   2.100   0.3749   0.00965   0.00428  -0.0250  0.6713  0.9893  -0.9349   0.0000   0.0000   0.0000   0.3140
   2.200   0.3917   0.00966   0.00421  -0.0262  0.6504  0.9916  -0.9693   0.0000   0.0000   0.0000   0.3140
   2.300   0.4082   0.00967   0.00415  -0.0273  0.6294  0.9943  -1.0037   0.0000   0.0000   0.0000   0.3140
   2.400   0.4245   0.00970   0.00409  -0.0284  0.6081  0.9972  -1.0379   0.0000   0.0000   0.0000   0.3140
   2.500   0.4408   0.00975   0.00405  -0.0295  0.5856  0.9997  -1.0739   0.0000   0.0000   0.0000   0.3140
   2.600   0.4484   0.00981   0.00406  -0.0289  0.5674  1.0000  -1.1148   0.0000   0.0000   0.0000   0.3114
   2.800   0.4617   0.00994   0.00405  -0.0272  0.5321  1.0000  -1.1963   0.0000   0.0000   0.0000   0.3059
   2.900   0.4685   0.01000   0.00405  -0.0265  0.5154  1.0000  -1.2379   0.0000   0.0000   0.0000   0.3033
   3.000   0.4753   0.01009   0.00406  -0.0257  0.4993  1.0000  -1.2796   0.0000   0.0000   0.0000   0.3008
   3.100   0.4822   0.01016   0.00407  -0.0249  0.4822  1.0000  -1.3221   0.0000   0.0000   0.0000   0.2983
   3.200   0.4893   0.01024   0.00409  -0.0242  0.4653  1.0000  -1.3653   0.0000   0.0000   0.0000   0.2960
   3.300   0.4962   0.01033   0.00411  -0.0234  0.4485  1.0000  -1.4086   0.0000   0.0000   0.0000   0.2937
   3.400   0.5031   0.01044   0.00414  -0.0226  0.4315  1.0000  -1.4520   0.0000   0.0000   0.0000   0.2915
   3.500   0.5103   0.01053   0.00417  -0.0219  0.4141  1.0000  -1.4967   0.0000   0.0000   0.0000   0.2894
   3.600   0.5176   0.01063   0.00421  -0.0212  0.3978  1.0000  -1.5418   0.0000   0.0000   0.0000   0.2874
   3.700   0.5247   0.01075   0.00425  -0.0205  0.3823  1.0000  -1.5868   0.0000   0.0000   0.0000   0.2854
   3.800   0.5322   0.01085   0.00430  -0.0199  0.3668  1.0000  -1.6330   0.0000   0.0000   0.0000   0.2835
   3.900   0.5397   0.01096   0.00436  -0.0192  0.3524  1.0000  -1.6797   0.0000   0.0000   0.0000   0.2817
   4.000   0.5469   0.01110   0.00442  -0.0185  0.3382  1.0000  -1.7259   0.0000   0.0000   0.0000   0.2799
   4.100   0.5547   0.01119   0.00450  -0.0179  0.3236  1.0000  -1.7739   0.0000   0.0000   0.0000   0.2783
   4.200   0.5622   0.01133   0.00457  -0.0172  0.3100  1.0000  -1.8214   0.0000   0.0000   0.0000   0.2766
   4.300   0.5697   0.01147   0.00465  -0.0166  0.2959  1.0000  -1.8694   0.0000   0.0000   0.0000   0.2750
   4.400   0.5775   0.01160   0.00475  -0.0160  0.2825  1.0000  -1.9180   0.0000   0.0000   0.0000   0.2734
   4.600   0.5926   0.01190   0.00499  -0.0147  0.2552  1.0000  -2.0150   0.0000   0.0000   0.0000   0.2704
   4.700   0.6000   0.01207   0.00510  -0.0140  0.2423  1.0000  -2.0636   0.0000   0.0000   0.0000   0.2690
   4.800   0.6077   0.01223   0.00520  -0.0134  0.2290  1.0000  -2.1242   0.0000   0.0000   0.0000   0.2676
   4.900   0.6153   0.01240   0.00533  -0.0128  0.2170  1.0000  -2.1850   0.0000   0.0000   0.0000   0.2662
   5.000   0.6228   0.01258   0.00545  -0.0122  0.2047  1.0000  -2.2522   0.0000   0.0000   0.0000   0.2649
   5.100   0.6306   0.01275   0.00559  -0.0115  0.1938  1.0000  -2.3266   0.0000   0.0000   0.0000   0.2636
   5.200   0.6382   0.01293   0.00571  -0.0109  0.1825  1.0000  -2.4019   0.0000   0.0000   0.0000   0.2623
   5.300   0.6458   0.01312   0.00586  -0.0103  0.1721  1.0000  -2.4776   0.0000   0.0000   0.0000   0.2611
   5.400   0.6536   0.01328   0.00598  -0.0097  0.1615  1.0000  -2.5557   0.0000   0.0000   0.0000   0.2599
   5.500   0.6610   0.01350   0.00614  -0.0091  0.1519  1.0000  -2.6317   0.0000   0.0000   0.0000   0.2587
   5.600   0.6693   0.01363   0.00628  -0.0086  0.1430  1.0000  -2.7131   0.0000   0.0000   0.0000   0.2576
   5.700   0.6765   0.01388   0.00644  -0.0079  0.1344  1.0000  -2.7899   0.0000   0.0000   0.0000   0.2564
   5.800   0.6845   0.01405   0.00662  -0.0073  0.1277  1.0000  -2.8698   0.0000   0.0000   0.0000   0.2553
   5.900   0.6926   0.01421   0.00679  -0.0067  0.1211  1.0000  -2.9516   0.0000   0.0000   0.0000   0.2543
   6.000   0.6999   0.01445   0.00698  -0.0061  0.1142  1.0000  -3.0301   0.0000   0.0000   0.0000   0.2532
   6.100   0.7071   0.01473   0.00723  -0.0054  0.1080  1.0000  -3.1056   0.0000   0.0000   0.0000   0.2520
   6.200   0.7156   0.01487   0.00741  -0.0048  0.1028  1.0000  -3.1899   0.0000   0.0000   0.0000   0.2511
   6.300   0.7234   0.01507   0.00760  -0.0042  0.0968  1.0000  -3.2720   0.0000   0.0000   0.0000   0.2501
   6.400   0.7294   0.01547   0.00793  -0.0034  0.0898  1.0000  -3.3419   0.0000   0.0000   0.0000   0.2488
   6.500   0.7373   0.01568   0.00818  -0.0027  0.0852  1.0000  -3.4213   0.0000   0.0000   0.0000   0.2478
   6.600   0.7455   0.01586   0.00839  -0.0022  0.0798  1.0000  -3.5031   0.0000   0.0000   0.0000   0.2469
   6.700   0.7526   0.01615   0.00864  -0.0014  0.0739  1.0000  -3.5797   0.0000   0.0000   0.0000   0.2458
   6.800   0.7563   0.01688   0.00937  -0.0002  0.0671  1.0000  -3.6269   0.0000   0.0000   0.0000   0.2440
   6.900   0.7648   0.01704   0.00960   0.0004  0.0641  1.0000  -3.7073   0.0000   0.0000   0.0000   0.2432
   7.000   0.7724   0.01731   0.00991   0.0011  0.0603  1.0000  -3.7800   0.0000   0.0000   0.0000   0.2422
   7.100   0.7797   0.01760   0.01021   0.0018  0.0571  1.0000  -3.8538   0.0000   0.0000   0.0000   0.2412
   7.200   0.7865   0.01795   0.01054   0.0026  0.0540  1.0000  -3.9269   0.0000   0.0000   0.0000   0.2401
   7.300   0.7912   0.01862   0.01119   0.0037  0.0507  1.0000  -3.9789   0.0000   0.0000   0.0000   0.2387
   7.400   0.7955   0.01955   0.01216   0.0048  0.0480  1.0000  -4.0163   0.0000   0.0000   0.0000   0.2372
   7.500   0.8039   0.01967   0.01232   0.0053  0.0470  1.0000  -4.1104   0.0000   0.0000   0.0000   0.2365
   7.600   0.8118   0.01992   0.01263   0.0060  0.0458  1.0000  -4.2065   0.0000   0.0000   0.0000   0.2357
   7.700   0.8192   0.02029   0.01304   0.0067  0.0447  1.0000  -4.2957   0.0000   0.0000   0.0000   0.2348
   7.800   0.8265   0.02068   0.01349   0.0074  0.0436  1.0000  -4.3837   0.0000   0.0000   0.0000   0.2339
   7.900   0.8338   0.02110   0.01395   0.0081  0.0425  1.0000  -4.4711   0.0000   0.0000   0.0000   0.2331
   8.000   0.8409   0.02152   0.01443   0.0088  0.0414  1.0000  -4.5583   0.0000   0.0000   0.0000   0.2322
   8.100   0.8480   0.02195   0.01491   0.0095  0.0404  1.0000  -4.6457   0.0000   0.0000   0.0000   0.2314
   8.200   0.8550   0.02238   0.01538   0.0102  0.0393  1.0000  -4.7338   0.0000   0.0000   0.0000   0.2305
   8.300   0.8619   0.02276   0.01580   0.0109  0.0382  1.0000  -4.8256   0.0000   0.0000   0.0000   0.2297
   8.400   0.8687   0.02312   0.01617   0.0116  0.0370  1.0000  -4.9212   0.0000   0.0000   0.0000   0.2289
   8.500   0.8749   0.02355   0.01661   0.0123  0.0357  1.0000  -5.0142   0.0000   0.0000   0.0000   0.2281
   8.600   0.8798   0.02436   0.01746   0.0132  0.0341  1.0000  -5.0839   0.0000   0.0000   0.0000   0.2271
   8.700   0.8806   0.02646   0.01974   0.0145  0.0323  1.0000  -5.0745   0.0000   0.0000   0.0000   0.2256
   8.800   0.8858   0.02717   0.02054   0.0153  0.0315  1.0000  -5.1429   0.0000   0.0000   0.0000   0.2246
   8.900   0.8929   0.02738   0.02082   0.0160  0.0310  1.0000  -5.2390   0.0000   0.0000   0.0000   0.2239
   9.000   0.8991   0.02784   0.02136   0.0168  0.0305  1.0000  -5.3191   0.0000   0.0000   0.0000   0.2230
   9.100   0.9050   0.02839   0.02199   0.0176  0.0299  1.0000  -5.3924   0.0000   0.0000   0.0000   0.2221
   9.200   0.9103   0.02901   0.02271   0.0185  0.0293  1.0000  -5.4594   0.0000   0.0000   0.0000   0.2212
   9.300   0.9153   0.02970   0.02350   0.0194  0.0287  1.0000  -5.5209   0.0000   0.0000   0.0000   0.2202
   9.400   0.9198   0.03044   0.02434   0.0203  0.0281  1.0000  -5.5774   0.0000   0.0000   0.0000   0.2192
   9.500   0.9239   0.03122   0.02522   0.0213  0.0276  1.0000  -5.6294   0.0000   0.0000   0.0000   0.2182
   9.600   0.9275   0.03204   0.02620   0.0222  0.0271  1.0000  -5.6799   0.0000   0.0000   0.0000   0.2171
   9.700   0.9306   0.03289   0.02716   0.0233  0.0266  1.0000  -5.7242   0.0000   0.0000   0.0000   0.2160
   9.800   0.9332   0.03377   0.02814   0.0243  0.0261  1.0000  -5.7646   0.0000   0.0000   0.0000   0.2149
   9.900   0.9354   0.03468   0.02915   0.0254  0.0257  1.0000  -5.8013   0.0000   0.0000   0.0000   0.2137
  10.000   0.9369   0.03562   0.03019   0.0265  0.0254  1.0000  -5.8334   0.0000   0.0000   0.0000   0.2125
  10.100   0.9377   0.03660   0.03128   0.0276  0.0251  1.0000  -5.8593   0.0000   0.0000   0.0000   0.2112
  10.200   0.9377   0.03761   0.03240   0.0288  0.0248  1.0000  -5.8801   0.0000   0.0000   0.0000   0.2098
  10.300   0.9370   0.03866   0.03356   0.0300  0.0246  1.0000  -5.8952   0.0000   0.0000   0.0000   0.2083
  10.400   0.9354   0.03975   0.03475   0.0313  0.0244  1.0000  -5.9043   0.0000   0.0000   0.0000   0.2068
  10.500   0.9329   0.04087   0.03598   0.0326  0.0243  1.0000  -5.9068   0.0000   0.0000   0.0000   0.2052
  10.600   0.9294   0.04200   0.03721   0.0340  0.0242  1.0000  -5.9044   0.0000   0.0000   0.0000   0.2035
  10.700   0.9245   0.04302   0.03833   0.0356  0.0241  1.0000  -5.8988   0.0000   0.0000   0.0000   0.2015
  10.800   0.9187   0.04402   0.03940   0.0372  0.0241  1.0000  -5.8904   0.0000   0.0000   0.0000   0.1993
  10.900   0.9126   0.04505   0.04052   0.0387  0.0240  1.0000  -5.8798   0.0000   0.0000   0.0000   0.1973
  11.000   0.9062   0.04614   0.04169   0.0400  0.0240  1.0000  -5.8665   0.0000   0.0000   0.0000   0.1954
  11.100   0.8994   0.04732   0.04294   0.0411  0.0239  1.0000  -5.8492   0.0000   0.0000   0.0000   0.1937
  11.200   0.8922   0.04859   0.04429   0.0420  0.0239  1.0000  -5.8265   0.0000   0.0000   0.0000   0.1922
  11.300   0.8844   0.04999   0.04578   0.0426  0.0239  1.0000  -5.7968   0.0000   0.0000   0.0000   0.1910
  11.400   0.8758   0.05156   0.04743   0.0428  0.0239  1.0000  -5.7579   0.0000   0.0000   0.0000   0.1901
  11.500   0.8664   0.05334   0.04929   0.0428  0.0240  1.0000  -5.7077   0.0000   0.0000   0.0000   0.1894
  11.600   0.8545   0.05552   0.05157   0.0423  0.0242  1.0000  -5.6303   0.0000   0.0000   0.0000   0.1892
  11.700   0.8403   0.05822   0.05438   0.0411  0.0245  1.0000  -5.5248   0.0000   0.0000   0.0000   0.1896
  11.800   0.8254   0.06129   0.05754   0.0392  0.0248  1.0000  -5.4095   0.0000   0.0000   0.0000   0.1907
  11.900   0.8106   0.06472   0.06107   0.0368  0.0251  1.0000  -5.2880   0.0000   0.0000   0.0000   0.1927
  12.000   0.7957   0.06857   0.06500   0.0338  0.0254  1.0000  -5.1591   0.0000   0.0000   0.0000   0.1954
  12.100   0.7794   0.07318   0.06968   0.0301  0.0258  1.0000  -5.0012   0.0000   0.0000   0.0000   0.1992
  12.200   0.7589   0.07930   0.07582   0.0252  0.0264  1.0000  -4.7733   0.0000   0.0000   0.0000   0.2045
  12.300   0.7304   0.08822   0.08478   0.0188  0.0274  1.0000  -4.4045   0.0000   0.0000   0.0000   0.2120
  12.400   0.7021   0.09762   0.09418   0.0135  0.0286  1.0000  -3.9851   0.0000   0.0000   0.0000   0.2187
  12.500   0.6876   0.10317   0.09970   0.0108  0.0292  1.0000  -3.7607   0.0000   0.0000   0.0000   0.2223
  12.600   0.6778   0.10743   0.10394   0.0088  0.0296  1.0000  -3.6065   0.0000   0.0000   0.0000   0.2250
  12.700   0.6701   0.11117   0.10766   0.0072  0.0299  1.0000  -3.4811   0.0000   0.0000   0.0000   0.2274
  12.800   0.6636   0.11460   0.11107   0.0057  0.0302  1.0000  -3.3726   0.0000   0.0000   0.0000   0.2295
  12.900   0.6580   0.11784   0.11429   0.0043  0.0305  1.0000  -3.2752   0.0000   0.0000   0.0000   0.2314
  13.000   0.6528   0.12097   0.11741   0.0031  0.0308  1.0000  -3.1833   0.0000   0.0000   0.0000   0.2332
  13.100   0.6267   0.13365   0.13005  -0.0022  0.0439  1.0000  -2.4659   0.0000   0.0000   0.0000   0.2422
  13.200   0.6511   0.12725   0.12369   0.0009  0.0349  1.0000  -2.9520   0.0000   0.0000   0.0000   0.2367
  13.300   0.6561   0.12709   0.12355   0.0014  0.0338  1.0000  -3.0663   0.0000   0.0000   0.0000   0.2357
  13.600   0.6267   0.14615   0.14254  -0.0031  0.0482  1.0000  -2.3763   0.0000   0.0000   0.0000   0.2433
  13.700   0.6273   0.14819   0.14457  -0.0039  0.0482  1.0000  -2.3537   0.0000   0.0000   0.0000   0.2445
  13.800   0.6279   0.15019   0.14657  -0.0047  0.0481  1.0000  -2.3321   0.0000   0.0000   0.0000   0.2456
  13.900   0.6286   0.15217   0.14854  -0.0055  0.0481  1.0000  -2.3112   0.0000   0.0000   0.0000   0.2468
  14.000   0.6294   0.15412   0.15048  -0.0062  0.0481  1.0000  -2.2909   0.0000   0.0000   0.0000   0.2480
  14.100   0.6303   0.15603   0.15239  -0.0070  0.0481  1.0000  -2.2713   0.0000   0.0000   0.0000   0.2491
  14.200   0.6313   0.15790   0.15426  -0.0078  0.0480  1.0000  -2.2520   0.0000   0.0000   0.0000   0.2503
  14.300   0.6323   0.15973   0.15609  -0.0086  0.0480  1.0000  -2.2332   0.0000   0.0000   0.0000   0.2515
  14.400   0.6333   0.16150   0.15785  -0.0094  0.0479  1.0000  -2.2144   0.0000   0.0000   0.0000   0.2527
  14.500   0.6344   0.16318   0.15953  -0.0103  0.0478  1.0000  -2.1956   0.0000   0.0000   0.0000   0.2539
  14.600   0.6355   0.16474   0.16108  -0.0112  0.0477  1.0000  -2.1766   0.0000   0.0000   0.0000   0.2552
  14.700   0.6367   0.16605   0.16239  -0.0122  0.0474  1.0000  -2.1563   0.0000   0.0000   0.0000   0.2566
  14.800   0.6364   0.16703   0.16336  -0.0138  0.0465  1.0000  -2.1124   0.0000   0.0000   0.0000   0.2591
  14.900   0.6340   0.16830   0.16461  -0.0157  0.0451  1.0000  -2.0467   0.0000   0.0000   0.0000   0.2622
  15.000   0.6338   0.16985   0.16615  -0.0170  0.0434  1.0000  -2.0100   0.0000   0.0000   0.0000   0.2642


