xflr5 v6.61

 Calculated polar for: SD8020-010-88

 1 1 Reynolds number fixed          Mach number fixed         

 xtrf =   1.000 (top)        1.000 (bottom)
 Mach =   0.000     Re =     0.175 e 6     Ncrit =   9.000

  alpha     CL        CD       CDp       Cm    Top Xtr Bot Xtr   Cpmin    Chinge    XCp    
 ------- -------- --------- --------- -------- ------- ------- -------- --------- ---------
 -10.000  -0.8937   0.04391   0.03842  -0.0295  1.0000  0.0316  -5.2611   0.0000   0.0000   0.0000   0.2079
  -9.900  -0.8936   0.04315   0.03756  -0.0284  1.0000  0.0318  -5.2316   0.0000   0.0000   0.0000   0.2092
  -9.800  -0.8954   0.04197   0.03628  -0.0271  1.0000  0.0319  -5.2270   0.0000   0.0000   0.0000   0.2108
  -9.700  -0.9005   0.04001   0.03413  -0.0257  1.0000  0.0321  -5.2674   0.0000   0.0000   0.0000   0.2126
  -9.600  -0.9048   0.03799   0.03192  -0.0242  1.0000  0.0324  -5.3058   0.0000   0.0000   0.0000   0.2144
  -9.500  -0.9079   0.03599   0.02972  -0.0228  1.0000  0.0327  -5.3371   0.0000   0.0000   0.0000   0.2161
  -9.400  -0.9092   0.03412   0.02766  -0.0216  1.0000  0.0332  -5.3538   0.0000   0.0000   0.0000   0.2177
  -9.300  -0.9085   0.03251   0.02589  -0.0204  1.0000  0.0338  -5.3481   0.0000   0.0000   0.0000   0.2190
  -9.200  -0.9058   0.03125   0.02452  -0.0194  1.0000  0.0346  -5.3157   0.0000   0.0000   0.0000   0.2201
  -9.100  -0.9016   0.03044   0.02367  -0.0186  1.0000  0.0356  -5.2493   0.0000   0.0000   0.0000   0.2210
  -9.000  -0.8961   0.03005   0.02328  -0.0179  1.0000  0.0369  -5.1539   0.0000   0.0000   0.0000   0.2218
  -8.900  -0.8900   0.02983   0.02306  -0.0173  1.0000  0.0383  -5.0510   0.0000   0.0000   0.0000   0.2225
  -8.800  -0.8838   0.02956   0.02277  -0.0166  1.0000  0.0398  -4.9554   0.0000   0.0000   0.0000   0.2232
  -8.700  -0.8778   0.02916   0.02231  -0.0159  1.0000  0.0412  -4.8717   0.0000   0.0000   0.0000   0.2240
  -8.600  -0.8716   0.02862   0.02170  -0.0151  1.0000  0.0425  -4.7966   0.0000   0.0000   0.0000   0.2249
  -8.500  -0.8654   0.02798   0.02096  -0.0143  1.0000  0.0435  -4.7289   0.0000   0.0000   0.0000   0.2258
  -8.400  -0.8591   0.02728   0.02016  -0.0135  1.0000  0.0445  -4.6642   0.0000   0.0000   0.0000   0.2267
  -8.300  -0.8525   0.02662   0.01940  -0.0127  1.0000  0.0453  -4.5955   0.0000   0.0000   0.0000   0.2276
  -8.200  -0.8456   0.02604   0.01872  -0.0120  1.0000  0.0462  -4.5219   0.0000   0.0000   0.0000   0.2284
  -8.100  -0.8384   0.02553   0.01812  -0.0113  1.0000  0.0470  -4.4436   0.0000   0.0000   0.0000   0.2292
  -8.000  -0.8310   0.02510   0.01760  -0.0106  1.0000  0.0476  -4.3608   0.0000   0.0000   0.0000   0.2300
  -7.900  -0.8233   0.02475   0.01717  -0.0099  1.0000  0.0482  -4.2736   0.0000   0.0000   0.0000   0.2308
  -7.800  -0.8180   0.02316   0.01549  -0.0090  1.0000  0.0499  -4.2392   0.0000   0.0000   0.0000   0.2319
  -7.700  -0.8126   0.02212   0.01444  -0.0082  1.0000  0.0523  -4.1781   0.0000   0.0000   0.0000   0.2329
  -7.600  -0.8060   0.02168   0.01401  -0.0075  1.0000  0.0546  -4.0889   0.0000   0.0000   0.0000   0.2338
  -7.500  -0.7988   0.02138   0.01370  -0.0069  1.0000  0.0569  -4.0091   0.0000   0.0000   0.0000   0.2346
  -7.400  -0.7914   0.02106   0.01336  -0.0062  1.0000  0.0594  -3.9356   0.0000   0.0000   0.0000   0.2354
  -7.300  -0.7840   0.02068   0.01294  -0.0055  1.0000  0.0619  -3.8680   0.0000   0.0000   0.0000   0.2363
  -7.200  -0.7763   0.02028   0.01248  -0.0048  1.0000  0.0644  -3.8036   0.0000   0.0000   0.0000   0.2373
  -7.100  -0.7683   0.01999   0.01211  -0.0041  1.0000  0.0667  -3.7349   0.0000   0.0000   0.0000   0.2382
  -7.000  -0.7634   0.01904   0.01117  -0.0030  1.0000  0.0709  -3.6964   0.0000   0.0000   0.0000   0.2397
  -6.900  -0.7577   0.01850   0.01069  -0.0021  1.0000  0.0758  -3.6349   0.0000   0.0000   0.0000   0.2409
  -6.800  -0.7504   0.01821   0.01039  -0.0014  1.0000  0.0810  -3.5615   0.0000   0.0000   0.0000   0.2419
  -6.700  -0.7424   0.01798   0.01004  -0.0008  1.0000  0.0863  -3.4858   0.0000   0.0000   0.0000   0.2429
  -6.600  -0.7363   0.01745   0.00953   0.0001  1.0000  0.0921  -3.4250   0.0000   0.0000   0.0000   0.2442
  -6.500  -0.7299   0.01708   0.00922   0.0009  1.0000  0.0984  -3.3530   0.0000   0.0000   0.0000   0.2453
  -6.400  -0.7220   0.01687   0.00898   0.0015  1.0000  0.1046  -3.2738   0.0000   0.0000   0.0000   0.2463
  -6.300  -0.7133   0.01675   0.00877   0.0020  1.0000  0.1097  -3.1916   0.0000   0.0000   0.0000   0.2471
  -6.200  -0.7077   0.01624   0.00838   0.0030  1.0000  0.1169  -3.1259   0.0000   0.0000   0.0000   0.2485
  -6.100  -0.7001   0.01603   0.00819   0.0036  1.0000  0.1239  -3.0458   0.0000   0.0000   0.0000   0.2495
  -6.000  -0.6915   0.01592   0.00801   0.0041  1.0000  0.1308  -2.9626   0.0000   0.0000   0.0000   0.2504
  -5.900  -0.6850   0.01556   0.00774   0.0048  1.0000  0.1388  -2.8907   0.0000   0.0000   0.0000   0.2517
  -5.800  -0.6773   0.01537   0.00758   0.0054  1.0000  0.1474  -2.8105   0.0000   0.0000   0.0000   0.2527
  -5.700  -0.6691   0.01522   0.00740   0.0060  1.0000  0.1561  -2.7308   0.0000   0.0000   0.0000   0.2537
  -5.600  -0.6623   0.01492   0.00721   0.0067  1.0000  0.1657  -2.6569   0.0000   0.0000   0.0000   0.2549
  -5.500  -0.6540   0.01480   0.00705   0.0072  1.0000  0.1756  -2.5775   0.0000   0.0000   0.0000   0.2560
  -5.400  -0.6473   0.01448   0.00684   0.0080  1.0000  0.1855  -2.5064   0.0000   0.0000   0.0000   0.2573
  -5.300  -0.6394   0.01430   0.00667   0.0086  1.0000  0.1961  -2.4308   0.0000   0.0000   0.0000   0.2585
  -5.200  -0.6323   0.01405   0.00648   0.0093  1.0000  0.2067  -2.3592   0.0000   0.0000   0.0000   0.2599
  -5.100  -0.6246   0.01386   0.00632   0.0099  1.0000  0.2189  -2.2853   0.0000   0.0000   0.0000   0.2611
  -5.000  -0.6175   0.01363   0.00616   0.0106  1.0000  0.2308  -2.2155   0.0000   0.0000   0.0000   0.2625
  -4.900  -0.6096   0.01347   0.00601   0.0112  1.0000  0.2444  -2.1545   0.0000   0.0000   0.0000   0.2638
  -4.800  -0.6027   0.01323   0.00587   0.0120  1.0000  0.2571  -2.0965   0.0000   0.0000   0.0000   0.2653
  -4.700  -0.5949   0.01306   0.00573   0.0126  1.0000  0.2710  -2.0380   0.0000   0.0000   0.0000   0.2667
  -4.600  -0.5878   0.01286   0.00561   0.0133  1.0000  0.2848  -1.9906   0.0000   0.0000   0.0000   0.2682
  -4.500  -0.5803   0.01268   0.00544   0.0140  1.0000  0.2986  -1.9431   0.0000   0.0000   0.0000   0.2698
  -4.400  -0.5727   0.01253   0.00532   0.0146  1.0000  0.3135  -1.8950   0.0000   0.0000   0.0000   0.2713
  -4.300  -0.5656   0.01235   0.00522   0.0153  1.0000  0.3277  -1.8483   0.0000   0.0000   0.0000   0.2730
  -4.200  -0.5581   0.01220   0.00512   0.0160  1.0000  0.3427  -1.8009   0.0000   0.0000   0.0000   0.2746
  -4.100  -0.5507   0.01206   0.00503   0.0167  1.0000  0.3586  -1.7540   0.0000   0.0000   0.0000   0.2763
  -4.000  -0.5436   0.01190   0.00495   0.0174  1.0000  0.3742  -1.7080   0.0000   0.0000   0.0000   0.2781
  -3.900  -0.5363   0.01176   0.00488   0.0181  1.0000  0.3909  -1.6619   0.0000   0.0000   0.0000   0.2800
  -3.700  -0.5219   0.01150   0.00476   0.0196  1.0000  0.4259  -1.5711   0.0000   0.0000   0.0000   0.2839
  -3.600  -0.5149   0.01138   0.00471   0.0204  1.0000  0.4431  -1.5264   0.0000   0.0000   0.0000   0.2859
  -3.500  -0.5077   0.01127   0.00467   0.0211  1.0000  0.4606  -1.4818   0.0000   0.0000   0.0000   0.2880
  -3.400  -0.5005   0.01118   0.00463   0.0219  1.0000  0.4785  -1.4374   0.0000   0.0000   0.0000   0.2902
  -3.300  -0.4936   0.01106   0.00460   0.0227  1.0000  0.4954  -1.3942   0.0000   0.0000   0.0000   0.2925
  -3.200  -0.4866   0.01096   0.00458   0.0235  1.0000  0.5124  -1.3510   0.0000   0.0000   0.0000   0.2949
  -3.100  -0.4796   0.01087   0.00455   0.0243  1.0000  0.5302  -1.3082   0.0000   0.0000   0.0000   0.2973
  -2.900  -0.4661   0.01071   0.00454   0.0260  1.0000  0.5669  -1.2244   0.0000   0.0000   0.0000   0.3026
  -2.800  -0.4594   0.01063   0.00454   0.0268  1.0000  0.5847  -1.1832   0.0000   0.0000   0.0000   0.3054
  -2.700  -0.4526   0.01056   0.00454   0.0277  1.0000  0.6025  -1.1422   0.0000   0.0000   0.0000   0.3082
  -2.600  -0.4459   0.01051   0.00455   0.0286  1.0000  0.6206  -1.1014   0.0000   0.0000   0.0000   0.3111
  -2.500  -0.4394   0.01045   0.00453   0.0295  1.0000  0.6385  -1.0670   0.0000   0.0000   0.0000   0.3143
  -2.400  -0.4329   0.01040   0.00456   0.0304  1.0000  0.6559  -1.0453   0.0000   0.0000   0.0000   0.3175
  -2.300  -0.4263   0.01035   0.00458   0.0313  1.0000  0.6734  -1.0236   0.0000   0.0000   0.0000   0.3208
  -2.200  -0.4199   0.01032   0.00461   0.0323  1.0000  0.6913  -1.0022   0.0000   0.0000   0.0000   0.3242
  -2.100  -0.4135   0.01029   0.00465   0.0332  1.0000  0.7089  -0.9809   0.0000   0.0000   0.0000   0.3277
  -2.000  -0.4070   0.01026   0.00470   0.0341  1.0000  0.7258  -0.9596   0.0000   0.0000   0.0000   0.3314
  -1.900  -0.4005   0.01025   0.00475   0.0351  1.0000  0.7432  -0.9384   0.0000   0.0000   0.0000   0.3351
  -1.800  -0.3915   0.01025   0.00480   0.0355  0.9993  0.7618  -0.9141   0.0000   0.0000   0.0000   0.3383
  -1.700  -0.3741   0.01029   0.00491   0.0343  0.9961  0.7820  -0.8794   0.0000   0.0000   0.0000   0.3394
  -1.600  -0.3562   0.01035   0.00503   0.0331  0.9930  0.8009  -0.8443   0.0000   0.0000   0.0000   0.3406
  -1.500  -0.3374   0.01044   0.00517   0.0317  0.9903  0.8191  -0.8083   0.0000   0.0000   0.0000   0.3416
  -1.400  -0.3200   0.01047   0.00524   0.0306  0.9874  0.8366  -0.7743   0.0000   0.0000   0.0000   0.3434
  -1.300  -0.3027   0.01050   0.00530   0.0295  0.9840  0.8536  -0.7409   0.0000   0.0000   0.0000   0.3453
  -1.200  -0.2821   0.01057   0.00538   0.0278  0.9815  0.8680  -0.7062   0.0000   0.0000   0.0000   0.3465
  -1.100  -0.2610   0.01066   0.00548   0.0260  0.9789  0.8821  -0.6749   0.0000   0.0000   0.0000   0.3475
  -1.000  -0.2379   0.01077   0.00560   0.0238  0.9768  0.8941  -0.6418   0.0000   0.0000   0.0000   0.3479
  -0.900  -0.2147   0.01088   0.00570   0.0215  0.9748  0.9046  -0.6090   0.0000   0.0000   0.0000   0.3481
  -0.800  -0.1891   0.01100   0.00583   0.0188  0.9734  0.9126  -0.5740   0.0000   0.0000   0.0000   0.3473
  -0.700  -0.1660   0.01112   0.00593   0.0165  0.9714  0.9216  -0.5452   0.0000   0.0000   0.0000   0.3475
  -0.600  -0.1404   0.01123   0.00603   0.0138  0.9700  0.9273  -0.5160   0.0000   0.0000   0.0000   0.3460
  -0.500  -0.1164   0.01130   0.00610   0.0114  0.9678  0.9320  -0.4883   0.0000   0.0000   0.0000   0.3456
  -0.300  -0.0737   0.01140   0.00617   0.0076  0.9606  0.9428  -0.4421   0.0000   0.0000   0.0000   0.3511
  -0.200  -0.0524   0.01144   0.00620   0.0057  0.9569  0.9478  -0.4204   0.0000   0.0000   0.0000   0.3572
  -0.100  -0.0262   0.01147   0.00623   0.0029  0.9546  0.9500  -0.3953   0.0000   0.0000   0.0000   0.3571
   0.000   0.0001   0.01147   0.00624  -0.0000  0.9523  0.9523  -0.3723   0.0000   0.0000   0.0000   0.4756
   0.100   0.0263   0.01147   0.00623  -0.0029  0.9500  0.9546  -0.3953   0.0000   0.0000   0.0000   0.3578
   0.200   0.0525   0.01144   0.00620  -0.0058  0.9478  0.9569  -0.4203   0.0000   0.0000   0.0000   0.3576
   0.300   0.0738   0.01140   0.00617  -0.0076  0.9428  0.9607  -0.4420   0.0000   0.0000   0.0000   0.3514
   0.500   0.1165   0.01130   0.00610  -0.0114  0.9320  0.9679  -0.4887   0.0000   0.0000   0.0000   0.3457
   0.600   0.1406   0.01122   0.00603  -0.0138  0.9273  0.9700  -0.5165   0.0000   0.0000   0.0000   0.3462
   0.700   0.1662   0.01111   0.00593  -0.0166  0.9216  0.9714  -0.5457   0.0000   0.0000   0.0000   0.3477
   0.800   0.1893   0.01100   0.00583  -0.0188  0.9126  0.9735  -0.5738   0.0000   0.0000   0.0000   0.3474
   0.900   0.2149   0.01088   0.00570  -0.0216  0.9046  0.9748  -0.6088   0.0000   0.0000   0.0000   0.3482
   1.000   0.2382   0.01077   0.00559  -0.0238  0.8941  0.9769  -0.6416   0.0000   0.0000   0.0000   0.3480
   1.100   0.2612   0.01066   0.00548  -0.0260  0.8821  0.9790  -0.6747   0.0000   0.0000   0.0000   0.3476
   1.200   0.2823   0.01057   0.00538  -0.0279  0.8681  0.9816  -0.7060   0.0000   0.0000   0.0000   0.3466
   1.300   0.3030   0.01050   0.00530  -0.0296  0.8537  0.9841  -0.7408   0.0000   0.0000   0.0000   0.3454
   1.400   0.3202   0.01047   0.00524  -0.0306  0.8367  0.9875  -0.7742   0.0000   0.0000   0.0000   0.3434
   1.500   0.3377   0.01043   0.00517  -0.0317  0.8192  0.9904  -0.8082   0.0000   0.0000   0.0000   0.3418
   1.600   0.3564   0.01035   0.00503  -0.0331  0.8009  0.9931  -0.8441   0.0000   0.0000   0.0000   0.3407
   1.700   0.3741   0.01029   0.00490  -0.0343  0.7821  0.9962  -0.8791   0.0000   0.0000   0.0000   0.3394
   1.800   0.3914   0.01025   0.00480  -0.0355  0.7620  0.9993  -0.9137   0.0000   0.0000   0.0000   0.3383
   1.900   0.4004   0.01025   0.00474  -0.0351  0.7433  1.0000  -0.9379   0.0000   0.0000   0.0000   0.3351
   2.000   0.4069   0.01026   0.00469  -0.0341  0.7259  1.0000  -0.9591   0.0000   0.0000   0.0000   0.3314
   2.100   0.4134   0.01029   0.00465  -0.0332  0.7089  1.0000  -0.9804   0.0000   0.0000   0.0000   0.3277
   2.200   0.4198   0.01032   0.00461  -0.0322  0.6913  1.0000  -1.0017   0.0000   0.0000   0.0000   0.3241
   2.300   0.4263   0.01035   0.00458  -0.0313  0.6734  1.0000  -1.0232   0.0000   0.0000   0.0000   0.3208
   2.400   0.4328   0.01039   0.00455  -0.0304  0.6560  1.0000  -1.0448   0.0000   0.0000   0.0000   0.3175
   2.500   0.4393   0.01045   0.00453  -0.0295  0.6387  1.0000  -1.0674   0.0000   0.0000   0.0000   0.3142
   2.600   0.4459   0.01051   0.00455  -0.0286  0.6208  1.0000  -1.1008   0.0000   0.0000   0.0000   0.3111
   2.700   0.4526   0.01056   0.00454  -0.0277  0.6028  1.0000  -1.1416   0.0000   0.0000   0.0000   0.3082
   2.800   0.4594   0.01063   0.00454  -0.0268  0.5850  1.0000  -1.1826   0.0000   0.0000   0.0000   0.3054
   2.900   0.4660   0.01070   0.00454  -0.0260  0.5673  1.0000  -1.2238   0.0000   0.0000   0.0000   0.3026
   3.100   0.4796   0.01087   0.00455  -0.0243  0.5305  1.0000  -1.3076   0.0000   0.0000   0.0000   0.2973
   3.200   0.4866   0.01096   0.00457  -0.0235  0.5127  1.0000  -1.3504   0.0000   0.0000   0.0000   0.2949
   3.300   0.4936   0.01106   0.00460  -0.0227  0.4957  1.0000  -1.3935   0.0000   0.0000   0.0000   0.2925
   3.500   0.5077   0.01127   0.00467  -0.0211  0.4607  1.0000  -1.4812   0.0000   0.0000   0.0000   0.2880
   3.600   0.5149   0.01138   0.00471  -0.0204  0.4432  1.0000  -1.5257   0.0000   0.0000   0.0000   0.2859
   3.700   0.5219   0.01150   0.00476  -0.0196  0.4259  1.0000  -1.5704   0.0000   0.0000   0.0000   0.2839
   3.900   0.5362   0.01176   0.00488  -0.0181  0.3909  1.0000  -1.6612   0.0000   0.0000   0.0000   0.2799
   4.000   0.5435   0.01190   0.00495  -0.0174  0.3742  1.0000  -1.7073   0.0000   0.0000   0.0000   0.2781
   4.100   0.5506   0.01206   0.00503  -0.0167  0.3586  1.0000  -1.7533   0.0000   0.0000   0.0000   0.2763
   4.200   0.5580   0.01220   0.00512  -0.0160  0.3427  1.0000  -1.8002   0.0000   0.0000   0.0000   0.2746
   4.300   0.5656   0.01235   0.00522  -0.0153  0.3278  1.0000  -1.8476   0.0000   0.0000   0.0000   0.2730
   4.400   0.5727   0.01253   0.00532  -0.0146  0.3136  1.0000  -1.8943   0.0000   0.0000   0.0000   0.2713
   4.500   0.5803   0.01268   0.00543  -0.0140  0.2986  1.0000  -1.9424   0.0000   0.0000   0.0000   0.2698
   4.600   0.5878   0.01286   0.00561  -0.0133  0.2849  1.0000  -1.9899   0.0000   0.0000   0.0000   0.2682
   4.700   0.5949   0.01306   0.00573  -0.0126  0.2710  1.0000  -2.0373   0.0000   0.0000   0.0000   0.2667
   4.800   0.6027   0.01322   0.00587  -0.0119  0.2571  1.0000  -2.0943   0.0000   0.0000   0.0000   0.2653
   4.900   0.6096   0.01346   0.00601  -0.0112  0.2443  1.0000  -2.1522   0.0000   0.0000   0.0000   0.2638
   5.000   0.6174   0.01362   0.00616  -0.0106  0.2308  1.0000  -2.2133   0.0000   0.0000   0.0000   0.2625
   5.100   0.6246   0.01386   0.00632  -0.0099  0.2188  1.0000  -2.2836   0.0000   0.0000   0.0000   0.2611
   5.200   0.6323   0.01404   0.00647  -0.0093  0.2067  1.0000  -2.3574   0.0000   0.0000   0.0000   0.2599
   5.300   0.6394   0.01430   0.00666  -0.0086  0.1961  1.0000  -2.4290   0.0000   0.0000   0.0000   0.2585
   5.400   0.6473   0.01448   0.00684  -0.0080  0.1855  1.0000  -2.5045   0.0000   0.0000   0.0000   0.2573
   5.500   0.6539   0.01480   0.00705  -0.0072  0.1756  1.0000  -2.5755   0.0000   0.0000   0.0000   0.2560
   5.600   0.6623   0.01492   0.00721  -0.0067  0.1658  1.0000  -2.6548   0.0000   0.0000   0.0000   0.2549
   5.700   0.6690   0.01522   0.00740  -0.0060  0.1562  1.0000  -2.7286   0.0000   0.0000   0.0000   0.2537
   5.800   0.6772   0.01538   0.00759  -0.0054  0.1474  1.0000  -2.8081   0.0000   0.0000   0.0000   0.2527
   5.900   0.6850   0.01556   0.00774  -0.0048  0.1388  1.0000  -2.8882   0.0000   0.0000   0.0000   0.2517
   6.000   0.6914   0.01592   0.00802  -0.0041  0.1308  1.0000  -2.9600   0.0000   0.0000   0.0000   0.2504
   6.100   0.7000   0.01604   0.00819  -0.0036  0.1238  1.0000  -3.0431   0.0000   0.0000   0.0000   0.2495
   6.200   0.7077   0.01625   0.00838  -0.0029  0.1168  1.0000  -3.1232   0.0000   0.0000   0.0000   0.2485
   6.300   0.7133   0.01675   0.00877  -0.0020  0.1095  1.0000  -3.1893   0.0000   0.0000   0.0000   0.2471
   6.400   0.7220   0.01688   0.00899  -0.0015  0.1044  1.0000  -3.2712   0.0000   0.0000   0.0000   0.2463
   6.500   0.7298   0.01709   0.00922  -0.0009  0.0982  1.0000  -3.3502   0.0000   0.0000   0.0000   0.2453
   6.600   0.7362   0.01747   0.00954  -0.0001  0.0920  1.0000  -3.4216   0.0000   0.0000   0.0000   0.2441
   6.700   0.7423   0.01799   0.01005   0.0008  0.0862  1.0000  -3.4829   0.0000   0.0000   0.0000   0.2428
   6.800   0.7503   0.01822   0.01040   0.0014  0.0811  1.0000  -3.5587   0.0000   0.0000   0.0000   0.2419
   6.900   0.7577   0.01851   0.01070   0.0021  0.0760  1.0000  -3.6323   0.0000   0.0000   0.0000   0.2409
   7.000   0.7635   0.01902   0.01116   0.0030  0.0712  1.0000  -3.6953   0.0000   0.0000   0.0000   0.2397
   7.100   0.7683   0.02001   0.01213   0.0041  0.0668  1.0000  -3.7326   0.0000   0.0000   0.0000   0.2382
   7.200   0.7763   0.02029   0.01249   0.0048  0.0646  1.0000  -3.8019   0.0000   0.0000   0.0000   0.2373
   7.300   0.7840   0.02069   0.01295   0.0055  0.0621  1.0000  -3.8664   0.0000   0.0000   0.0000   0.2363
   7.400   0.7915   0.02108   0.01338   0.0062  0.0596  1.0000  -3.9336   0.0000   0.0000   0.0000   0.2354
   7.500   0.7989   0.02141   0.01374   0.0069  0.0572  1.0000  -4.0064   0.0000   0.0000   0.0000   0.2346
   7.600   0.8061   0.02171   0.01404   0.0075  0.0549  1.0000  -4.0874   0.0000   0.0000   0.0000   0.2338
   7.700   0.8128   0.02212   0.01444   0.0082  0.0526  1.0000  -4.1782   0.0000   0.0000   0.0000   0.2329
   7.800   0.8184   0.02306   0.01538   0.0090  0.0501  1.0000  -4.2441   0.0000   0.0000   0.0000   0.2319
   7.900   0.8233   0.02480   0.01722   0.0099  0.0483  1.0000  -4.2722   0.0000   0.0000   0.0000   0.2308
   8.000   0.8310   0.02514   0.01764   0.0106  0.0477  1.0000  -4.3597   0.0000   0.0000   0.0000   0.2300
   8.100   0.8384   0.02556   0.01815   0.0112  0.0471  1.0000  -4.4430   0.0000   0.0000   0.0000   0.2292
   8.200   0.8456   0.02607   0.01875   0.0120  0.0463  1.0000  -4.5217   0.0000   0.0000   0.0000   0.2284
   8.300   0.8526   0.02664   0.01942   0.0127  0.0455  1.0000  -4.5956   0.0000   0.0000   0.0000   0.2276
   8.400   0.8592   0.02729   0.02017   0.0135  0.0446  1.0000  -4.6646   0.0000   0.0000   0.0000   0.2267
   8.500   0.8655   0.02799   0.02098   0.0143  0.0437  1.0000  -4.7295   0.0000   0.0000   0.0000   0.2258
   8.600   0.8717   0.02864   0.02172   0.0151  0.0426  1.0000  -4.7970   0.0000   0.0000   0.0000   0.2249
   8.700   0.8778   0.02918   0.02233   0.0158  0.0413  1.0000  -4.8719   0.0000   0.0000   0.0000   0.2241
   8.800   0.8839   0.02959   0.02280   0.0166  0.0399  1.0000  -4.9549   0.0000   0.0000   0.0000   0.2232
   8.900   0.8900   0.02986   0.02310   0.0173  0.0384  1.0000  -5.0499   0.0000   0.0000   0.0000   0.2225
   9.000   0.8962   0.03008   0.02332   0.0179  0.0370  1.0000  -5.1527   0.0000   0.0000   0.0000   0.2218
   9.100   0.9018   0.03045   0.02368   0.0186  0.0357  1.0000  -5.2493   0.0000   0.0000   0.0000   0.2211
   9.200   0.9061   0.03122   0.02450   0.0194  0.0347  1.0000  -5.3183   0.0000   0.0000   0.0000   0.2202
   9.300   0.9089   0.03244   0.02582   0.0204  0.0339  1.0000  -5.3532   0.0000   0.0000   0.0000   0.2191
   9.400   0.9098   0.03402   0.02755   0.0215  0.0333  1.0000  -5.3613   0.0000   0.0000   0.0000   0.2178
   9.500   0.9086   0.03588   0.02959   0.0228  0.0328  1.0000  -5.3459   0.0000   0.0000   0.0000   0.2162
   9.600   0.9056   0.03787   0.03179   0.0242  0.0324  1.0000  -5.3152   0.0000   0.0000   0.0000   0.2146
   9.700   0.9014   0.03990   0.03401   0.0256  0.0321  1.0000  -5.2769   0.0000   0.0000   0.0000   0.2128
   9.800   0.8963   0.04187   0.03617   0.0270  0.0319  1.0000  -5.2362   0.0000   0.0000   0.0000   0.2109
   9.900   0.8934   0.04325   0.03766   0.0283  0.0318  1.0000  -5.2285   0.0000   0.0000   0.0000   0.2093
  10.000   0.8937   0.04397   0.03849   0.0295  0.0316  1.0000  -5.2598   0.0000   0.0000   0.0000   0.2079
  10.100   0.8927   0.04486   0.03949   0.0306  0.0315  1.0000  -5.2782   0.0000   0.0000   0.0000   0.2065
  10.200   0.8905   0.04586   0.04059   0.0318  0.0313  1.0000  -5.2868   0.0000   0.0000   0.0000   0.2049
  10.300   0.8871   0.04694   0.04184   0.0331  0.0312  1.0000  -5.2888   0.0000   0.0000   0.0000   0.2033
  10.400   0.8825   0.04805   0.04305   0.0344  0.0311  1.0000  -5.2821   0.0000   0.0000   0.0000   0.2015
  10.500   0.8761   0.04910   0.04418   0.0360  0.0311  1.0000  -5.2685   0.0000   0.0000   0.0000   0.1993
  10.600   0.8689   0.05019   0.04535   0.0375  0.0311  1.0000  -5.2504   0.0000   0.0000   0.0000   0.1971
  10.700   0.8613   0.05136   0.04660   0.0387  0.0310  1.0000  -5.2282   0.0000   0.0000   0.0000   0.1951
  10.800   0.8533   0.05263   0.04794   0.0398  0.0311  1.0000  -5.2018   0.0000   0.0000   0.0000   0.1934
  10.900   0.8449   0.05401   0.04940   0.0405  0.0311  1.0000  -5.1708   0.0000   0.0000   0.0000   0.1919
  11.000   0.8361   0.05553   0.05100   0.0409  0.0311  1.0000  -5.1346   0.0000   0.0000   0.0000   0.1908
  11.100   0.8269   0.05720   0.05267   0.0409  0.0312  1.0000  -5.0916   0.0000   0.0000   0.0000   0.1900
  11.200   0.8171   0.05907   0.05460   0.0406  0.0312  1.0000  -5.0433   0.0000   0.0000   0.0000   0.1896
  11.300   0.8068   0.06117   0.05677   0.0399  0.0313  1.0000  -4.9864   0.0000   0.0000   0.0000   0.1897
  11.400   0.7956   0.06359   0.05926   0.0388  0.0315  1.0000  -4.9168   0.0000   0.0000   0.0000   0.1902
  11.500   0.7826   0.06656   0.06228   0.0373  0.0317  1.0000  -4.8224   0.0000   0.0000   0.0000   0.1911
  11.800   0.7584   0.07415   0.07004   0.0323  0.0320  1.0000  -4.6534   0.0000   0.0000   0.0000   0.1957
  11.900   0.7526   0.07655   0.07248   0.0305  0.0321  1.0000  -4.6130   0.0000   0.0000   0.0000   0.1977
  12.000   0.7469   0.07911   0.07508   0.0285  0.0323  1.0000  -4.5675   0.0000   0.0000   0.0000   0.1999
  12.100   0.7412   0.08187   0.07787   0.0263  0.0324  1.0000  -4.5150   0.0000   0.0000   0.0000   0.2024
  12.200   0.7352   0.08488   0.08091   0.0240  0.0326  1.0000  -4.4516   0.0000   0.0000   0.0000   0.2052
  12.300   0.7285   0.08834   0.08441   0.0213  0.0329  1.0000  -4.3662   0.0000   0.0000   0.0000   0.2084
  12.400   0.6459   0.11575   0.11175   0.0051  0.0418  1.0000  -2.9145   0.0000   0.0000   0.0000   0.2311
  12.500   0.6424   0.11852   0.11451   0.0039  0.0424  1.0000  -2.8474   0.0000   0.0000   0.0000   0.2328
  12.600   0.6396   0.12114   0.11711   0.0029  0.0431  1.0000  -2.7896   0.0000   0.0000   0.0000   0.2343
  12.700   0.6374   0.12362   0.11958   0.0020  0.0438  1.0000  -2.7399   0.0000   0.0000   0.0000   0.2356
  12.800   0.6357   0.12598   0.12193   0.0012  0.0445  1.0000  -2.6980   0.0000   0.0000   0.0000   0.2368
  12.900   0.6344   0.12825   0.12419   0.0006  0.0454  1.0000  -2.6644   0.0000   0.0000   0.0000   0.2377
  13.000   0.3762   0.08961   0.08641  -0.0044  0.0800  1.0000  -1.2173   0.0000   0.0000   0.0000   0.2584
  13.100   0.3778   0.09091   0.08770  -0.0052  0.0786  1.0000  -1.2150   0.0000   0.0000   0.0000   0.2603
  13.200   0.3800   0.09219   0.08899  -0.0058  0.0773  1.0000  -1.2173   0.0000   0.0000   0.0000   0.2619
  13.300   0.3825   0.09346   0.09025  -0.0064  0.0761  1.0000  -1.2233   0.0000   0.0000   0.0000   0.2632
  13.400   0.3855   0.09470   0.09150  -0.0069  0.0749  1.0000  -1.2340   0.0000   0.0000   0.0000   0.2643
  13.500   0.3902   0.09577   0.09258  -0.0071  0.0732  1.0000  -1.2642   0.0000   0.0000   0.0000   0.2645
  13.600   0.6160   0.14874   0.14462  -0.0089  0.0603  1.0000  -2.0771   0.0000   0.0000   0.0000   0.2531
  13.700   0.6165   0.15040   0.14627  -0.0097  0.0593  1.0000  -2.0630   0.0000   0.0000   0.0000   0.2542
  13.800   0.6173   0.15201   0.14789  -0.0103  0.0584  1.0000  -2.0531   0.0000   0.0000   0.0000   0.2553
  13.900   0.6184   0.15359   0.14946  -0.0110  0.0575  1.0000  -2.0465   0.0000   0.0000   0.0000   0.2562
  14.000   0.6198   0.15513   0.15100  -0.0116  0.0567  1.0000  -2.0430   0.0000   0.0000   0.0000   0.2570
  14.100   0.6214   0.15663   0.15250  -0.0121  0.0559  1.0000  -2.0423   0.0000   0.0000   0.0000   0.2577
  14.200   0.6233   0.15811   0.15397  -0.0126  0.0552  1.0000  -2.0442   0.0000   0.0000   0.0000   0.2583
  14.300   0.6253   0.15955   0.15541  -0.0131  0.0546  1.0000  -2.0488   0.0000   0.0000   0.0000   0.2589
  14.400   0.6276   0.16098   0.15684  -0.0135  0.0539  1.0000  -2.0562   0.0000   0.0000   0.0000   0.2594
  14.500   0.6302   0.16238   0.15824  -0.0138  0.0533  1.0000  -2.0666   0.0000   0.0000   0.0000   0.2598
  14.600   0.6331   0.16377   0.15963  -0.0141  0.0528  1.0000  -2.0804   0.0000   0.0000   0.0000   0.2600
  14.700   0.6364   0.16515   0.16101  -0.0144  0.0522  1.0000  -2.0981   0.0000   0.0000   0.0000   0.2602
  14.800   0.6402   0.16653   0.16240  -0.0145  0.0517  1.0000  -2.1211   0.0000   0.0000   0.0000   0.2602
  14.900   0.6447   0.16793   0.16380  -0.0145  0.0512  1.0000  -2.1508   0.0000   0.0000   0.0000   0.2599
  15.000   0.6496   0.16937   0.16525  -0.0144  0.0507  1.0000  -2.1859   0.0000   0.0000   0.0000   0.2594


