xflr5 v6.61

 Calculated polar for: SD8020-010-88

 1 1 Reynolds number fixed          Mach number fixed         

 xtrf =   1.000 (top)        1.000 (bottom)
 Mach =   0.000     Re =     0.500 e 6     Ncrit =   9.000

  alpha     CL        CD       CDp       Cm    Top Xtr Bot Xtr   Cpmin    Chinge    XCp    
 ------- -------- --------- --------- -------- ------- ------- -------- --------- ---------
 -10.000  -0.9976   0.02271   0.01720  -0.0180  1.0000  0.0124  -7.1024   0.0000   0.0000   0.0000   0.2224
  -9.900  -0.9999   0.02145   0.01582  -0.0160  1.0000  0.0130  -7.1145   0.0000   0.0000   0.0000   0.2245
  -9.800  -0.9975   0.02077   0.01508  -0.0147  1.0000  0.0137  -7.0520   0.0000   0.0000   0.0000   0.2258
  -9.700  -0.9922   0.02039   0.01469  -0.0139  1.0000  0.0142  -6.9470   0.0000   0.0000   0.0000   0.2267
  -9.600  -0.9855   0.02016   0.01445  -0.0132  1.0000  0.0147  -6.8227   0.0000   0.0000   0.0000   0.2274
  -9.500  -0.9784   0.01997   0.01425  -0.0126  1.0000  0.0153  -6.6940   0.0000   0.0000   0.0000   0.2281
  -9.400  -0.9711   0.01979   0.01406  -0.0121  1.0000  0.0158  -6.5667   0.0000   0.0000   0.0000   0.2287
  -9.300  -0.9637   0.01960   0.01386  -0.0115  1.0000  0.0164  -6.4425   0.0000   0.0000   0.0000   0.2293
  -9.200  -0.9564   0.01940   0.01364  -0.0109  1.0000  0.0170  -6.3222   0.0000   0.0000   0.0000   0.2300
  -9.100  -0.9491   0.01918   0.01340  -0.0102  1.0000  0.0176  -6.2046   0.0000   0.0000   0.0000   0.2307
  -9.000  -0.9419   0.01895   0.01310  -0.0096  1.0000  0.0181  -6.0870   0.0000   0.0000   0.0000   0.2314
  -8.900  -0.9344   0.01874   0.01286  -0.0090  1.0000  0.0185  -5.9705   0.0000   0.0000   0.0000   0.2321
  -8.800  -0.9267   0.01855   0.01265  -0.0084  1.0000  0.0189  -5.8525   0.0000   0.0000   0.0000   0.2328
  -8.700  -0.9188   0.01839   0.01246  -0.0078  1.0000  0.0193  -5.7329   0.0000   0.0000   0.0000   0.2334
  -8.600  -0.9107   0.01825   0.01230  -0.0073  1.0000  0.0195  -5.6110   0.0000   0.0000   0.0000   0.2340
  -8.500  -0.9022   0.01816   0.01219  -0.0068  1.0000  0.0197  -5.4859   0.0000   0.0000   0.0000   0.2346
  -8.400  -0.9028   0.01696   0.01085  -0.0048  1.0000  0.0209  -5.4808   0.0000   0.0000   0.0000   0.2369
  -8.300  -0.8993   0.01631   0.01012  -0.0035  1.0000  0.0220  -5.4198   0.0000   0.0000   0.0000   0.2385
  -8.200  -0.8937   0.01589   0.00966  -0.0025  1.0000  0.0230  -5.3322   0.0000   0.0000   0.0000   0.2396
  -8.100  -0.8872   0.01558   0.00932  -0.0017  1.0000  0.0239  -5.2311   0.0000   0.0000   0.0000   0.2406
  -8.000  -0.8800   0.01532   0.00905  -0.0010  1.0000  0.0247  -5.1233   0.0000   0.0000   0.0000   0.2415
  -7.900  -0.8725   0.01510   0.00882  -0.0003  1.0000  0.0254  -5.0118   0.0000   0.0000   0.0000   0.2424
  -7.800  -0.8647   0.01492   0.00862   0.0003  1.0000  0.0262  -4.8967   0.0000   0.0000   0.0000   0.2432
  -7.700  -0.8567   0.01475   0.00844   0.0009  1.0000  0.0271  -4.7810   0.0000   0.0000   0.0000   0.2439
  -7.600  -0.8487   0.01458   0.00826   0.0014  1.0000  0.0279  -4.6667   0.0000   0.0000   0.0000   0.2447
  -7.500  -0.8407   0.01441   0.00807   0.0020  1.0000  0.0287  -4.5543   0.0000   0.0000   0.0000   0.2455
  -7.400  -0.8327   0.01424   0.00788   0.0026  1.0000  0.0295  -4.4436   0.0000   0.0000   0.0000   0.2464
  -7.300  -0.8247   0.01407   0.00768   0.0032  1.0000  0.0302  -4.3345   0.0000   0.0000   0.0000   0.2472
  -7.200  -0.8167   0.01390   0.00749   0.0038  1.0000  0.0308  -4.2265   0.0000   0.0000   0.0000   0.2481
  -7.100  -0.8086   0.01374   0.00730   0.0044  1.0000  0.0313  -4.1192   0.0000   0.0000   0.0000   0.2490
  -7.000  -0.8003   0.01360   0.00714   0.0050  1.0000  0.0317  -4.0191   0.0000   0.0000   0.0000   0.2498
  -6.900  -0.7943   0.01320   0.00668   0.0060  1.0000  0.0336  -3.9562   0.0000   0.0000   0.0000   0.2512
  -6.800  -0.7885   0.01277   0.00624   0.0070  1.0000  0.0386  -3.8973   0.0000   0.0000   0.0000   0.2527
  -6.700  -0.7812   0.01253   0.00605   0.0077  1.0000  0.0429  -3.8147   0.0000   0.0000   0.0000   0.2538
  -6.600  -0.7730   0.01237   0.00590   0.0083  1.0000  0.0467  -3.7256   0.0000   0.0000   0.0000   0.2547
  -6.500  -0.7651   0.01220   0.00568   0.0089  1.0000  0.0512  -3.6376   0.0000   0.0000   0.0000   0.2557
  -6.400  -0.7581   0.01192   0.00548   0.0096  1.0000  0.0595  -3.5577   0.0000   0.0000   0.0000   0.2569
  -6.300  -0.7499   0.01178   0.00536   0.0102  1.0000  0.0643  -3.4687   0.0000   0.0000   0.0000   0.2579
  -6.200  -0.7412   0.01170   0.00525   0.0107  1.0000  0.0670  -3.3766   0.0000   0.0000   0.0000   0.2587
  -6.100  -0.7334   0.01153   0.00508   0.0113  1.0000  0.0725  -3.2926   0.0000   0.0000   0.0000   0.2598
  -6.000  -0.7255   0.01135   0.00495   0.0119  1.0000  0.0782  -3.2074   0.0000   0.0000   0.0000   0.2609
  -5.900  -0.7174   0.01122   0.00484   0.0125  1.0000  0.0828  -3.1206   0.0000   0.0000   0.0000   0.2620
  -5.800  -0.7089   0.01113   0.00474   0.0130  1.0000  0.0863  -3.0330   0.0000   0.0000   0.0000   0.2630
  -5.700  -0.7004   0.01104   0.00464   0.0135  1.0000  0.0893  -2.9461   0.0000   0.0000   0.0000   0.2640
  -5.600  -0.6927   0.01088   0.00451   0.0141  1.0000  0.0963  -2.8645   0.0000   0.0000   0.0000   0.2652
  -5.500  -0.6847   0.01074   0.00441   0.0147  1.0000  0.1019  -2.7816   0.0000   0.0000   0.0000   0.2664
  -5.400  -0.6764   0.01064   0.00432   0.0152  1.0000  0.1068  -2.6981   0.0000   0.0000   0.0000   0.2675
  -5.300  -0.6680   0.01056   0.00423   0.0157  1.0000  0.1110  -2.6151   0.0000   0.0000   0.0000   0.2687
  -5.200  -0.6603   0.01042   0.00413   0.0164  1.0000  0.1188  -2.5361   0.0000   0.0000   0.0000   0.2700
  -5.100  -0.6522   0.01030   0.00405   0.0169  1.0000  0.1255  -2.4564   0.0000   0.0000   0.0000   0.2712
  -5.000  -0.6439   0.01023   0.00398   0.0175  1.0000  0.1309  -2.3762   0.0000   0.0000   0.0000   0.2725
  -4.900  -0.6361   0.01011   0.00389   0.0181  1.0000  0.1388  -2.2991   0.0000   0.0000   0.0000   0.2738
  -4.800  -0.6282   0.01000   0.00383   0.0186  1.0000  0.1470  -2.2231   0.0000   0.0000   0.0000   0.2752
  -4.700  -0.6200   0.00993   0.00377   0.0192  1.0000  0.1539  -2.1587   0.0000   0.0000   0.0000   0.2765
  -4.600  -0.6124   0.00981   0.00370   0.0198  1.0000  0.1639  -2.0972   0.0000   0.0000   0.0000   0.2780
  -4.500  -0.6028   0.00972   0.00364   0.0200  0.9998  0.1733  -2.0412   0.0000   0.0000   0.0000   0.2789
  -4.400  -0.5879   0.00960   0.00354   0.0191  0.9986  0.1846  -1.9725   0.0000   0.0000   0.0000   0.2783
  -4.300  -0.5731   0.00949   0.00348   0.0183  0.9974  0.1971  -1.9035   0.0000   0.0000   0.0000   0.2777
  -4.200  -0.5585   0.00935   0.00341   0.0174  0.9960  0.2118  -1.8358   0.0000   0.0000   0.0000   0.2770
  -4.100  -0.5437   0.00923   0.00336   0.0165  0.9945  0.2282  -1.7684   0.0000   0.0000   0.0000   0.2763
  -3.900  -0.5138   0.00897   0.00326   0.0146  0.9918  0.2657  -1.6348   0.0000   0.0000   0.0000   0.2746
  -3.800  -0.4985   0.00884   0.00321   0.0136  0.9906  0.2837  -1.5684   0.0000   0.0000   0.0000   0.2735
  -3.700  -0.4828   0.00874   0.00317   0.0126  0.9896  0.2990  -1.5016   0.0000   0.0000   0.0000   0.2722
  -3.600  -0.4702   0.00862   0.00309   0.0122  0.9877  0.3128  -1.4431   0.0000   0.0000   0.0000   0.2723
  -3.500  -0.4571   0.00848   0.00302   0.0118  0.9857  0.3270  -1.3841   0.0000   0.0000   0.0000   0.2720
  -3.400  -0.4432   0.00838   0.00296   0.0112  0.9836  0.3410  -1.3240   0.0000   0.0000   0.0000   0.2715
  -3.300  -0.4292   0.00826   0.00290   0.0105  0.9815  0.3565  -1.2642   0.0000   0.0000   0.0000   0.2709
  -3.200  -0.4148   0.00814   0.00284   0.0098  0.9795  0.3715  -1.2041   0.0000   0.0000   0.0000   0.2700
  -3.100  -0.3999   0.00804   0.00279   0.0089  0.9776  0.3868  -1.1433   0.0000   0.0000   0.0000   0.2688
  -3.000  -0.3849   0.00792   0.00271   0.0081  0.9759  0.4048  -1.0818   0.0000   0.0000   0.0000   0.2675
  -2.900  -0.3697   0.00779   0.00267   0.0072  0.9743  0.4239  -1.0392   0.0000   0.0000   0.0000   0.2659
  -2.800  -0.3542   0.00767   0.00262   0.0062  0.9728  0.4432  -1.0058   0.0000   0.0000   0.0000   0.2641
  -2.700  -0.3385   0.00756   0.00258   0.0052  0.9715  0.4616  -0.9724   0.0000   0.0000   0.0000   0.2619
  -2.600  -0.3223   0.00746   0.00253   0.0041  0.9704  0.4789  -0.9388   0.0000   0.0000   0.0000   0.2594
  -2.500  -0.3082   0.00734   0.00249   0.0035  0.9686  0.4961  -0.9078   0.0000   0.0000   0.0000   0.2579
  -2.400  -0.2994   0.00721   0.00242   0.0040  0.9641  0.5113  -0.8837   0.0000   0.0000   0.0000   0.2602
  -2.300  -0.2869   0.00710   0.00237   0.0038  0.9608  0.5288  -0.8553   0.0000   0.0000   0.0000   0.2599
  -2.200  -0.2733   0.00699   0.00232   0.0033  0.9580  0.5466  -0.8256   0.0000   0.0000   0.0000   0.2588
  -2.100  -0.2591   0.00687   0.00227   0.0027  0.9555  0.5629  -0.7954   0.0000   0.0000   0.0000   0.2571
  -2.000  -0.2442   0.00677   0.00222   0.0019  0.9534  0.5784  -0.7646   0.0000   0.0000   0.0000   0.2547
  -1.900  -0.2289   0.00667   0.00218   0.0011  0.9514  0.5955  -0.7337   0.0000   0.0000   0.0000   0.2516
  -1.800  -0.2141   0.00655   0.00212   0.0004  0.9494  0.6126  -0.7033   0.0000   0.0000   0.0000   0.2485
  -1.700  -0.1988   0.00644   0.00207  -0.0005  0.9474  0.6282  -0.6757   0.0000   0.0000   0.0000   0.2445
  -1.600  -0.1893   0.00637   0.00203   0.0000  0.9417  0.6415  -0.6563   0.0000   0.0000   0.0000   0.2469
  -1.500  -0.1779   0.00627   0.00200   0.0001  0.9366  0.6549  -0.6350   0.0000   0.0000   0.0000   0.2472
  -1.400  -0.1643   0.00619   0.00195  -0.0004  0.9325  0.6690  -0.6118   0.0000   0.0000   0.0000   0.2447
  -1.300  -0.1499   0.00609   0.00191  -0.0009  0.9287  0.6839  -0.5880   0.0000   0.0000   0.0000   0.2406
  -1.200  -0.1350   0.00601   0.00187  -0.0016  0.9250  0.6972  -0.5638   0.0000   0.0000   0.0000   0.2349
  -1.100  -0.1239   0.00595   0.00184  -0.0015  0.9186  0.7097  -0.5449   0.0000   0.0000   0.0000   0.2350
  -1.000  -0.1120   0.00588   0.00182  -0.0015  0.9119  0.7214  -0.5270   0.0000   0.0000   0.0000   0.2334
  -0.900  -0.0988   0.00583   0.00178  -0.0018  0.9057  0.7340  -0.5082   0.0000   0.0000   0.0000   0.2286
  -0.800  -0.0860   0.00576   0.00175  -0.0020  0.8996  0.7456  -0.4899   0.0000   0.0000   0.0000   0.2237
  -0.700  -0.0754   0.00573   0.00174  -0.0017  0.8911  0.7572  -0.4735   0.0000   0.0000   0.0000   0.2239
  -0.600  -0.0639   0.00569   0.00171  -0.0016  0.8830  0.7677  -0.4572   0.0000   0.0000   0.0000   0.2211
  -0.500  -0.0524   0.00566   0.00169  -0.0015  0.8753  0.7788  -0.4424   0.0000   0.0000   0.0000   0.2174
  -0.400  -0.0421   0.00564   0.00168  -0.0012  0.8663  0.7888  -0.4286   0.0000   0.0000   0.0000   0.2179
  -0.300  -0.0312   0.00562   0.00167  -0.0010  0.8573  0.7994  -0.4144   0.0000   0.0000   0.0000   0.2158
  -0.200  -0.0208   0.00561   0.00166  -0.0007  0.8483  0.8094  -0.4005   0.0000   0.0000   0.0000   0.2147
  -0.100  -0.0104   0.00560   0.00167  -0.0003  0.8386  0.8196  -0.3869   0.0000   0.0000   0.0000   0.2166
   0.000  -0.0000   0.00561   0.00165   0.0000  0.8296  0.8297  -0.3747   0.0000   0.0000   0.0000   0.5180
   0.100   0.0104   0.00560   0.00167   0.0003  0.8195  0.8387  -0.3868   0.0000   0.0000   0.0000   0.2157
   0.200   0.0208   0.00561   0.00166   0.0007  0.8092  0.8484  -0.4003   0.0000   0.0000   0.0000   0.2143
   0.300   0.0312   0.00562   0.00167   0.0010  0.7993  0.8573  -0.4141   0.0000   0.0000   0.0000   0.2156
   0.400   0.0421   0.00564   0.00168   0.0012  0.7887  0.8663  -0.4283   0.0000   0.0000   0.0000   0.2177
   0.500   0.0524   0.00566   0.00169   0.0015  0.7787  0.8754  -0.4422   0.0000   0.0000   0.0000   0.2173
   0.600   0.0639   0.00569   0.00171   0.0016  0.7677  0.8830  -0.4570   0.0000   0.0000   0.0000   0.2211
   0.700   0.0754   0.00573   0.00174   0.0017  0.7573  0.8912  -0.4738   0.0000   0.0000   0.0000   0.2239
   0.800   0.0860   0.00576   0.00175   0.0020  0.7458  0.8996  -0.4903   0.0000   0.0000   0.0000   0.2237
   0.900   0.0988   0.00583   0.00178   0.0018  0.7342  0.9057  -0.5086   0.0000   0.0000   0.0000   0.2287
   1.000   0.1120   0.00588   0.00182   0.0015  0.7216  0.9119  -0.5274   0.0000   0.0000   0.0000   0.2335
   1.100   0.1240   0.00595   0.00184   0.0015  0.7100  0.9186  -0.5452   0.0000   0.0000   0.0000   0.2350
   1.200   0.1351   0.00601   0.00187   0.0016  0.6976  0.9251  -0.5635   0.0000   0.0000   0.0000   0.2350
   1.300   0.1500   0.00609   0.00191   0.0009  0.6843  0.9287  -0.5877   0.0000   0.0000   0.0000   0.2407
   1.400   0.1644   0.00619   0.00195   0.0003  0.6694  0.9325  -0.6115   0.0000   0.0000   0.0000   0.2449
   1.500   0.1779   0.00627   0.00200  -0.0001  0.6553  0.9367  -0.6347   0.0000   0.0000   0.0000   0.2473
   1.600   0.1893   0.00637   0.00203  -0.0000  0.6416  0.9417  -0.6559   0.0000   0.0000   0.0000   0.2469
   1.700   0.1988   0.00644   0.00207   0.0004  0.6281  0.9474  -0.6754   0.0000   0.0000   0.0000   0.2445
   1.800   0.2142   0.00655   0.00212  -0.0004  0.6121  0.9494  -0.7029   0.0000   0.0000   0.0000   0.2486
   1.900   0.2290   0.00667   0.00217  -0.0011  0.5950  0.9514  -0.7333   0.0000   0.0000   0.0000   0.2517
   2.000   0.2442   0.00677   0.00222  -0.0019  0.5780  0.9534  -0.7642   0.0000   0.0000   0.0000   0.2547
   2.100   0.2592   0.00687   0.00227  -0.0027  0.5628  0.9555  -0.7950   0.0000   0.0000   0.0000   0.2572
   2.200   0.2734   0.00699   0.00232  -0.0033  0.5468  0.9580  -0.8252   0.0000   0.0000   0.0000   0.2589
   2.300   0.2870   0.00710   0.00237  -0.0038  0.5292  0.9608  -0.8549   0.0000   0.0000   0.0000   0.2600
   2.400   0.2995   0.00721   0.00242  -0.0040  0.5120  0.9641  -0.8834   0.0000   0.0000   0.0000   0.2602
   2.500   0.3081   0.00734   0.00249  -0.0034  0.4968  0.9687  -0.9072   0.0000   0.0000   0.0000   0.2578
   2.600   0.3225   0.00746   0.00253  -0.0042  0.4792  0.9704  -0.9385   0.0000   0.0000   0.0000   0.2595
   2.700   0.3387   0.00756   0.00258  -0.0052  0.4620  0.9716  -0.9722   0.0000   0.0000   0.0000   0.2620
   2.800   0.3544   0.00767   0.00262  -0.0062  0.4435  0.9729  -1.0056   0.0000   0.0000   0.0000   0.2642
   2.900   0.3699   0.00779   0.00267  -0.0072  0.4241  0.9743  -1.0389   0.0000   0.0000   0.0000   0.2660
   3.000   0.3850   0.00792   0.00271  -0.0081  0.4048  0.9759  -1.0816   0.0000   0.0000   0.0000   0.2675
   3.100   0.3998   0.00804   0.00279  -0.0089  0.3868  0.9776  -1.1428   0.0000   0.0000   0.0000   0.2688
   3.200   0.4147   0.00814   0.00284  -0.0097  0.3715  0.9795  -1.2033   0.0000   0.0000   0.0000   0.2699
   3.300   0.4290   0.00826   0.00289  -0.0105  0.3566  0.9815  -1.2633   0.0000   0.0000   0.0000   0.2708
   3.400   0.4430   0.00837   0.00295  -0.0111  0.3411  0.9836  -1.3230   0.0000   0.0000   0.0000   0.2715
   3.500   0.4568   0.00848   0.00302  -0.0117  0.3272  0.9856  -1.3831   0.0000   0.0000   0.0000   0.2720
   3.600   0.4700   0.00861   0.00309  -0.0122  0.3130  0.9877  -1.4421   0.0000   0.0000   0.0000   0.2722
   3.700   0.4827   0.00873   0.00317  -0.0126  0.2992  0.9895  -1.5008   0.0000   0.0000   0.0000   0.2722
   3.800   0.4985   0.00884   0.00321  -0.0136  0.2840  0.9906  -1.5678   0.0000   0.0000   0.0000   0.2735
   3.900   0.5139   0.00897   0.00326  -0.0147  0.2659  0.9918  -1.6345   0.0000   0.0000   0.0000   0.2746
   4.100   0.5440   0.00923   0.00336  -0.0166  0.2283  0.9946  -1.7687   0.0000   0.0000   0.0000   0.2764
   4.200   0.5589   0.00935   0.00341  -0.0175  0.2121  0.9961  -1.8365   0.0000   0.0000   0.0000   0.2772
   4.300   0.5736   0.00949   0.00348  -0.0184  0.1973  0.9975  -1.9042   0.0000   0.0000   0.0000   0.2778
   4.400   0.5885   0.00960   0.00354  -0.0192  0.1846  0.9987  -1.9733   0.0000   0.0000   0.0000   0.2785
   4.500   0.6033   0.00972   0.00364  -0.0201  0.1733  0.9998  -2.0420   0.0000   0.0000   0.0000   0.2791
   4.600   0.6124   0.00980   0.00370  -0.0198  0.1641  1.0000  -2.0965   0.0000   0.0000   0.0000   0.2780
   4.700   0.6200   0.00993   0.00377  -0.0192  0.1540  1.0000  -2.1561   0.0000   0.0000   0.0000   0.2765
   4.800   0.6282   0.01000   0.00383  -0.0186  0.1472  1.0000  -2.2206   0.0000   0.0000   0.0000   0.2752
   4.900   0.6360   0.01011   0.00389  -0.0180  0.1390  1.0000  -2.2971   0.0000   0.0000   0.0000   0.2738
   5.000   0.6439   0.01023   0.00398  -0.0175  0.1310  1.0000  -2.3741   0.0000   0.0000   0.0000   0.2724
   5.100   0.6522   0.01030   0.00405  -0.0169  0.1256  1.0000  -2.4543   0.0000   0.0000   0.0000   0.2712
   5.200   0.6602   0.01041   0.00413  -0.0163  0.1190  1.0000  -2.5340   0.0000   0.0000   0.0000   0.2699
   5.300   0.6680   0.01056   0.00423  -0.0157  0.1112  1.0000  -2.6130   0.0000   0.0000   0.0000   0.2687
   5.400   0.6764   0.01064   0.00432  -0.0152  0.1069  1.0000  -2.6959   0.0000   0.0000   0.0000   0.2675
   5.500   0.6846   0.01074   0.00441  -0.0147  0.1020  1.0000  -2.7793   0.0000   0.0000   0.0000   0.2664
   5.600   0.6926   0.01087   0.00451  -0.0141  0.0963  1.0000  -2.8622   0.0000   0.0000   0.0000   0.2652
   5.700   0.7004   0.01104   0.00464  -0.0135  0.0893  1.0000  -2.9437   0.0000   0.0000   0.0000   0.2640
   5.800   0.7089   0.01113   0.00474  -0.0130  0.0863  1.0000  -3.0306   0.0000   0.0000   0.0000   0.2630
   5.900   0.7173   0.01122   0.00484  -0.0124  0.0827  1.0000  -3.1181   0.0000   0.0000   0.0000   0.2620
   6.000   0.7255   0.01135   0.00495  -0.0119  0.0781  1.0000  -3.2049   0.0000   0.0000   0.0000   0.2609
   6.100   0.7333   0.01153   0.00508  -0.0113  0.0724  1.0000  -3.2899   0.0000   0.0000   0.0000   0.2598
   6.200   0.7412   0.01171   0.00525  -0.0107  0.0669  1.0000  -3.3740   0.0000   0.0000   0.0000   0.2587
   6.300   0.7499   0.01178   0.00536  -0.0102  0.0643  1.0000  -3.4660   0.0000   0.0000   0.0000   0.2578
   6.400   0.7580   0.01193   0.00548  -0.0096  0.0595  1.0000  -3.5550   0.0000   0.0000   0.0000   0.2569
   6.500   0.7651   0.01219   0.00567  -0.0089  0.0516  1.0000  -3.6357   0.0000   0.0000   0.0000   0.2557
   6.600   0.7729   0.01238   0.00591  -0.0083  0.0469  1.0000  -3.7223   0.0000   0.0000   0.0000   0.2547
   6.700   0.7812   0.01252   0.00605  -0.0077  0.0433  1.0000  -3.8124   0.0000   0.0000   0.0000   0.2538
   6.800   0.7886   0.01275   0.00624  -0.0070  0.0392  1.0000  -3.8963   0.0000   0.0000   0.0000   0.2527
   6.900   0.7948   0.01314   0.00661  -0.0061  0.0344  1.0000  -3.9612   0.0000   0.0000   0.0000   0.2513
   7.000   0.8001   0.01362   0.00716  -0.0049  0.0317  1.0000  -4.0149   0.0000   0.0000   0.0000   0.2498
   7.100   0.8084   0.01376   0.00732  -0.0044  0.0314  1.0000  -4.1168   0.0000   0.0000   0.0000   0.2489
   7.200   0.8165   0.01392   0.00750  -0.0038  0.0309  1.0000  -4.2246   0.0000   0.0000   0.0000   0.2481
   7.300   0.8246   0.01408   0.00769  -0.0032  0.0303  1.0000  -4.3329   0.0000   0.0000   0.0000   0.2472
   7.400   0.8327   0.01425   0.00789  -0.0026  0.0296  1.0000  -4.4423   0.0000   0.0000   0.0000   0.2464
   7.500   0.8407   0.01442   0.00808  -0.0020  0.0288  1.0000  -4.5531   0.0000   0.0000   0.0000   0.2455
   7.600   0.8487   0.01459   0.00827  -0.0014  0.0280  1.0000  -4.6655   0.0000   0.0000   0.0000   0.2447
   7.700   0.8567   0.01475   0.00845  -0.0009  0.0272  1.0000  -4.7798   0.0000   0.0000   0.0000   0.2439
   7.800   0.8647   0.01492   0.00863  -0.0003  0.0264  1.0000  -4.8956   0.0000   0.0000   0.0000   0.2432
   7.900   0.8725   0.01510   0.00882   0.0003  0.0256  1.0000  -5.0111   0.0000   0.0000   0.0000   0.2424
   8.000   0.8801   0.01531   0.00905   0.0010  0.0248  1.0000  -5.1231   0.0000   0.0000   0.0000   0.2416
   8.100   0.8873   0.01556   0.00931   0.0017  0.0240  1.0000  -5.2319   0.0000   0.0000   0.0000   0.2407
   8.200   0.8940   0.01586   0.00963   0.0024  0.0232  1.0000  -5.3350   0.0000   0.0000   0.0000   0.2397
   8.300   0.8998   0.01626   0.01007   0.0034  0.0222  1.0000  -5.4260   0.0000   0.0000   0.0000   0.2386
   8.400   0.9038   0.01686   0.01073   0.0046  0.0211  1.0000  -5.4933   0.0000   0.0000   0.0000   0.2371
   8.500   0.9037   0.01797   0.01199   0.0065  0.0199  1.0000  -5.5060   0.0000   0.0000   0.0000   0.2349
   8.600   0.9105   0.01828   0.01233   0.0073  0.0195  1.0000  -5.6088   0.0000   0.0000   0.0000   0.2340
   8.700   0.9187   0.01840   0.01247   0.0078  0.0193  1.0000  -5.7317   0.0000   0.0000   0.0000   0.2334
   8.800   0.9267   0.01856   0.01265   0.0083  0.0190  1.0000  -5.8525   0.0000   0.0000   0.0000   0.2328
   8.900   0.9345   0.01874   0.01286   0.0089  0.0186  1.0000  -5.9714   0.0000   0.0000   0.0000   0.2321
   9.000   0.9420   0.01894   0.01308   0.0095  0.0181  1.0000  -6.0888   0.0000   0.0000   0.0000   0.2314
   9.100   0.9493   0.01916   0.01338   0.0102  0.0176  1.0000  -6.2070   0.0000   0.0000   0.0000   0.2307
   9.200   0.9566   0.01937   0.01362   0.0108  0.0170  1.0000  -6.3250   0.0000   0.0000   0.0000   0.2300
   9.300   0.9640   0.01958   0.01384   0.0114  0.0165  1.0000  -6.4456   0.0000   0.0000   0.0000   0.2294
   9.400   0.9713   0.01976   0.01404   0.0120  0.0159  1.0000  -6.5700   0.0000   0.0000   0.0000   0.2287
   9.500   0.9787   0.01994   0.01422   0.0126  0.0153  1.0000  -6.6975   0.0000   0.0000   0.0000   0.2281
   9.600   0.9859   0.02013   0.01441   0.0132  0.0148  1.0000  -6.8267   0.0000   0.0000   0.0000   0.2275
   9.700   0.9927   0.02036   0.01465   0.0138  0.0143  1.0000  -6.9518   0.0000   0.0000   0.0000   0.2268
   9.800   0.9980   0.02072   0.01503   0.0147  0.0137  1.0000  -7.0584   0.0000   0.0000   0.0000   0.2259
   9.900   1.0007   0.02138   0.01574   0.0159  0.0131  1.0000  -7.1238   0.0000   0.0000   0.0000   0.2246
  10.000   0.9987   0.02260   0.01707   0.0178  0.0124  1.0000  -7.1162   0.0000   0.0000   0.0000   0.2226
  10.100   0.9908   0.02464   0.01933   0.0204  0.0119  1.0000  -7.0179   0.0000   0.0000   0.0000   0.2198
  10.200   0.9974   0.02484   0.01957   0.0210  0.0118  1.0000  -7.1366   0.0000   0.0000   0.0000   0.2191
  10.300   1.0036   0.02509   0.01985   0.0218  0.0117  1.0000  -7.2502   0.0000   0.0000   0.0000   0.2184
  10.400   1.0092   0.02538   0.02019   0.0226  0.0116  1.0000  -7.3588   0.0000   0.0000   0.0000   0.2176
  10.500   1.0145   0.02572   0.02057   0.0234  0.0115  1.0000  -7.4621   0.0000   0.0000   0.0000   0.2168
  10.600   1.0192   0.02610   0.02099   0.0243  0.0113  1.0000  -7.5602   0.0000   0.0000   0.0000   0.2159
  10.700   1.0235   0.02651   0.02146   0.0252  0.0112  1.0000  -7.6533   0.0000   0.0000   0.0000   0.2150
  10.800   1.0273   0.02696   0.02196   0.0262  0.0111  1.0000  -7.7414   0.0000   0.0000   0.0000   0.2140
  10.900   1.0306   0.02744   0.02250   0.0272  0.0110  1.0000  -7.8248   0.0000   0.0000   0.0000   0.2129
  11.000   1.0334   0.02794   0.02306   0.0283  0.0108  1.0000  -7.9035   0.0000   0.0000   0.0000   0.2118
  11.100   1.0356   0.02846   0.02364   0.0294  0.0107  1.0000  -7.9770   0.0000   0.0000   0.0000   0.2107
  11.200   1.0365   0.02898   0.02421   0.0308  0.0106  1.0000  -8.0412   0.0000   0.0000   0.0000   0.2092
  11.300   1.0365   0.02949   0.02479   0.0323  0.0105  1.0000  -8.0992   0.0000   0.0000   0.0000   0.2077
  11.400   1.0361   0.03003   0.02538   0.0338  0.0104  1.0000  -8.1538   0.0000   0.0000   0.0000   0.2061
  11.500   1.0355   0.03060   0.02601   0.0352  0.0103  1.0000  -8.2065   0.0000   0.0000   0.0000   0.2046
  11.600   1.0348   0.03119   0.02667   0.0365  0.0101  1.0000  -8.2571   0.0000   0.0000   0.0000   0.2031
  11.700   1.0340   0.03182   0.02736   0.0378  0.0100  1.0000  -8.3059   0.0000   0.0000   0.0000   0.2017
  11.800   1.0330   0.03248   0.02808   0.0390  0.0099  1.0000  -8.3525   0.0000   0.0000   0.0000   0.2003
  11.900   1.0318   0.03318   0.02884   0.0401  0.0098  1.0000  -8.3964   0.0000   0.0000   0.0000   0.1991
  12.000   1.0303   0.03392   0.02964   0.0411  0.0097  1.0000  -8.4378   0.0000   0.0000   0.0000   0.1979
  12.100   1.0286   0.03470   0.03048   0.0421  0.0097  1.0000  -8.4764   0.0000   0.0000   0.0000   0.1968
  12.200   1.0266   0.03553   0.03137   0.0429  0.0096  1.0000  -8.5121   0.0000   0.0000   0.0000   0.1957
  12.300   1.0244   0.03642   0.03232   0.0436  0.0095  1.0000  -8.5445   0.0000   0.0000   0.0000   0.1948
  12.400   1.0218   0.03737   0.03334   0.0441  0.0094  1.0000  -8.5723   0.0000   0.0000   0.0000   0.1940
  12.500   1.0190   0.03839   0.03442   0.0446  0.0093  1.0000  -8.5967   0.0000   0.0000   0.0000   0.1933
  12.600   1.0159   0.03949   0.03559   0.0449  0.0092  1.0000  -8.6174   0.0000   0.0000   0.0000   0.1927
  12.700   1.0126   0.04067   0.03684   0.0450  0.0092  1.0000  -8.6340   0.0000   0.0000   0.0000   0.1922
  12.800   1.0090   0.04195   0.03818   0.0450  0.0091  1.0000  -8.6460   0.0000   0.0000   0.0000   0.1919
  12.900   1.0051   0.04333   0.03962   0.0447  0.0091  1.0000  -8.6533   0.0000   0.0000   0.0000   0.1918
  13.000   1.0009   0.04483   0.04119   0.0443  0.0090  1.0000  -8.6554   0.0000   0.0000   0.0000   0.1918
  13.100   0.9964   0.04646   0.04289   0.0438  0.0090  1.0000  -8.6516   0.0000   0.0000   0.0000   0.1920
  13.200   0.9915   0.04823   0.04472   0.0430  0.0089  1.0000  -8.6408   0.0000   0.0000   0.0000   0.1923
  13.300   0.9861   0.05015   0.04671   0.0420  0.0089  1.0000  -8.6220   0.0000   0.0000   0.0000   0.1929
  13.400   0.9802   0.05225   0.04888   0.0408  0.0089  1.0000  -8.5941   0.0000   0.0000   0.0000   0.1936
  13.500   0.9738   0.05456   0.05126   0.0394  0.0089  1.0000  -8.5559   0.0000   0.0000   0.0000   0.1946
  13.600   0.9668   0.05708   0.05385   0.0378  0.0089  1.0000  -8.5061   0.0000   0.0000   0.0000   0.1958
  13.700   0.9590   0.05985   0.05669   0.0359  0.0089  1.0000  -8.4420   0.0000   0.0000   0.0000   0.1972
  13.800   0.9502   0.06288   0.05980   0.0339  0.0089  1.0000  -8.3615   0.0000   0.0000   0.0000   0.1988
  13.900   0.9403   0.06618   0.06318   0.0317  0.0089  1.0000  -8.2633   0.0000   0.0000   0.0000   0.2006
  14.000   0.9293   0.06984   0.06692   0.0292  0.0090  1.0000  -8.1432   0.0000   0.0000   0.0000   0.2027
  14.100   0.9170   0.07385   0.07100   0.0265  0.0091  1.0000  -8.0006   0.0000   0.0000   0.0000   0.2051
  14.200   0.9026   0.07839   0.07562   0.0235  0.0092  1.0000  -7.8225   0.0000   0.0000   0.0000   0.2078
  14.300   0.8851   0.08370   0.08101   0.0202  0.0094  1.0000  -7.5908   0.0000   0.0000   0.0000   0.2110
  14.400   0.8648   0.08965   0.08705   0.0165  0.0096  1.0000  -7.3112   0.0000   0.0000   0.0000   0.2146
  14.500   0.8408   0.09662   0.09409   0.0125  0.0099  1.0000  -6.9594   0.0000   0.0000   0.0000   0.2189
  14.600   0.8058   0.10642   0.10397   0.0071  0.0104  1.0000  -6.4026   0.0000   0.0000   0.0000   0.2251
  14.700   0.6884   0.13831   0.13587  -0.0072  0.0118  1.0000  -4.0693   0.0000   0.0000   0.0000   0.2459
  14.900   0.4473   0.10616   0.10430  -0.0177  0.0165  1.0000  -1.9115   0.0000   0.0000   0.0000   0.2834
  15.000   0.4483   0.10819   0.10633  -0.0186  0.0166  1.0000  -1.8642   0.0000   0.0000   0.0000   0.2855


