xflr5 v6.61

 Calculated polar for: SD8020-010-88

 1 1 Reynolds number fixed          Mach number fixed         

 xtrf =   1.000 (top)        1.000 (bottom)
 Mach =   0.000     Re =     0.300 e 6     Ncrit =   9.000

  alpha     CL        CD       CDp       Cm    Top Xtr Bot Xtr   Cpmin    Chinge    XCp    
 ------- -------- --------- --------- -------- ------- ------- -------- --------- ---------
 -10.000  -0.9383   0.03347   0.02821  -0.0256  1.0000  0.0196  -6.0308   0.0000   0.0000   0.0000   0.2134
  -9.900  -0.9362   0.03274   0.02740  -0.0245  1.0000  0.0198  -5.9832   0.0000   0.0000   0.0000   0.2146
  -9.800  -0.9422   0.03040   0.02481  -0.0226  1.0000  0.0201  -6.0614   0.0000   0.0000   0.0000   0.2168
  -9.700  -0.9455   0.02833   0.02253  -0.0210  1.0000  0.0206  -6.1128   0.0000   0.0000   0.0000   0.2187
  -9.600  -0.9458   0.02672   0.02077  -0.0195  1.0000  0.0212  -6.1240   0.0000   0.0000   0.0000   0.2203
  -9.500  -0.9437   0.02559   0.01953  -0.0183  1.0000  0.0218  -6.0947   0.0000   0.0000   0.0000   0.2216
  -9.400  -0.9399   0.02480   0.01868  -0.0173  1.0000  0.0224  -6.0349   0.0000   0.0000   0.0000   0.2228
  -9.300  -0.9351   0.02423   0.01807  -0.0164  1.0000  0.0231  -5.9556   0.0000   0.0000   0.0000   0.2237
  -9.200  -0.9295   0.02377   0.01752  -0.0156  1.0000  0.0237  -5.8639   0.0000   0.0000   0.0000   0.2246
  -9.100  -0.9235   0.02337   0.01709  -0.0148  1.0000  0.0244  -5.7709   0.0000   0.0000   0.0000   0.2255
  -9.000  -0.9174   0.02299   0.01667  -0.0141  1.0000  0.0250  -5.6770   0.0000   0.0000   0.0000   0.2263
  -8.900  -0.9110   0.02260   0.01625  -0.0133  1.0000  0.0258  -5.5835   0.0000   0.0000   0.0000   0.2271
  -8.800  -0.9045   0.02222   0.01582  -0.0126  1.0000  0.0265  -5.4907   0.0000   0.0000   0.0000   0.2280
  -8.700  -0.8980   0.02183   0.01539  -0.0118  1.0000  0.0273  -5.3984   0.0000   0.0000   0.0000   0.2288
  -8.600  -0.8912   0.02145   0.01496  -0.0111  1.0000  0.0281  -5.3057   0.0000   0.0000   0.0000   0.2296
  -8.500  -0.8843   0.02111   0.01457  -0.0104  1.0000  0.0290  -5.2091   0.0000   0.0000   0.0000   0.2304
  -8.400  -0.8767   0.02089   0.01431  -0.0097  1.0000  0.0299  -5.1019   0.0000   0.0000   0.0000   0.2311
  -8.300  -0.8687   0.02076   0.01415  -0.0092  1.0000  0.0307  -4.9881   0.0000   0.0000   0.0000   0.2318
  -8.200  -0.8603   0.02069   0.01405  -0.0087  1.0000  0.0313  -4.8702   0.0000   0.0000   0.0000   0.2323
  -8.100  -0.8516   0.02067   0.01400  -0.0082  1.0000  0.0318  -4.7505   0.0000   0.0000   0.0000   0.2329
  -8.000  -0.8483   0.01956   0.01279  -0.0070  1.0000  0.0330  -4.7094   0.0000   0.0000   0.0000   0.2344
  -7.900  -0.8445   0.01868   0.01185  -0.0058  1.0000  0.0343  -4.6565   0.0000   0.0000   0.0000   0.2359
  -7.800  -0.8393   0.01810   0.01123  -0.0047  1.0000  0.0356  -4.5831   0.0000   0.0000   0.0000   0.2372
  -7.700  -0.8333   0.01766   0.01076  -0.0038  1.0000  0.0368  -4.4985   0.0000   0.0000   0.0000   0.2383
  -7.600  -0.8267   0.01730   0.01039  -0.0030  1.0000  0.0379  -4.4072   0.0000   0.0000   0.0000   0.2394
  -7.500  -0.8197   0.01700   0.01007  -0.0023  1.0000  0.0392  -4.3120   0.0000   0.0000   0.0000   0.2404
  -7.400  -0.8125   0.01672   0.00977  -0.0016  1.0000  0.0405  -4.2156   0.0000   0.0000   0.0000   0.2413
  -7.300  -0.8052   0.01645   0.00947  -0.0009  1.0000  0.0420  -4.1201   0.0000   0.0000   0.0000   0.2423
  -7.200  -0.7976   0.01621   0.00921  -0.0002  1.0000  0.0438  -4.0391   0.0000   0.0000   0.0000   0.2432
  -7.100  -0.7896   0.01602   0.00899   0.0004  1.0000  0.0458  -3.9547   0.0000   0.0000   0.0000   0.2441
  -7.000  -0.7812   0.01589   0.00882   0.0009  1.0000  0.0475  -3.8663   0.0000   0.0000   0.0000   0.2448
  -6.900  -0.7750   0.01547   0.00838   0.0019  1.0000  0.0502  -3.8024   0.0000   0.0000   0.0000   0.2461
  -6.800  -0.7705   0.01490   0.00784   0.0031  1.0000  0.0566  -3.7506   0.0000   0.0000   0.0000   0.2478
  -6.700  -0.7630   0.01465   0.00762   0.0037  1.0000  0.0616  -3.6708   0.0000   0.0000   0.0000   0.2488
  -6.600  -0.7546   0.01450   0.00739   0.0043  1.0000  0.0660  -3.5835   0.0000   0.0000   0.0000   0.2497
  -6.500  -0.7481   0.01416   0.00704   0.0051  1.0000  0.0720  -3.5130   0.0000   0.0000   0.0000   0.2510
  -6.400  -0.7410   0.01387   0.00682   0.0059  1.0000  0.0786  -3.4343   0.0000   0.0000   0.0000   0.2521
  -6.300  -0.7329   0.01371   0.00666   0.0064  1.0000  0.0839  -3.3484   0.0000   0.0000   0.0000   0.2530
  -6.200  -0.7241   0.01362   0.00652   0.0069  1.0000  0.0876  -3.2597   0.0000   0.0000   0.0000   0.2539
  -6.100  -0.7171   0.01334   0.00627   0.0076  1.0000  0.0938  -3.1831   0.0000   0.0000   0.0000   0.2551
  -6.000  -0.7095   0.01313   0.00611   0.0083  1.0000  0.0999  -3.1011   0.0000   0.0000   0.0000   0.2562
  -5.900  -0.7013   0.01299   0.00597   0.0088  1.0000  0.1054  -3.0166   0.0000   0.0000   0.0000   0.2572
  -5.800  -0.6926   0.01290   0.00584   0.0093  1.0000  0.1095  -2.9304   0.0000   0.0000   0.0000   0.2581
  -5.700  -0.6855   0.01265   0.00565   0.0100  1.0000  0.1170  -2.8535   0.0000   0.0000   0.0000   0.2594
  -5.600  -0.6776   0.01248   0.00551   0.0106  1.0000  0.1237  -2.7725   0.0000   0.0000   0.0000   0.2605
  -5.500  -0.6693   0.01236   0.00539   0.0111  1.0000  0.1298  -2.6901   0.0000   0.0000   0.0000   0.2616
  -5.400  -0.6615   0.01219   0.00524   0.0117  1.0000  0.1370  -2.6113   0.0000   0.0000   0.0000   0.2628
  -5.300  -0.6537   0.01202   0.00512   0.0124  1.0000  0.1453  -2.5330   0.0000   0.0000   0.0000   0.2640
  -5.200  -0.6454   0.01191   0.00501   0.0129  1.0000  0.1531  -2.4527   0.0000   0.0000   0.0000   0.2651
  -5.100  -0.6379   0.01172   0.00489   0.0135  1.0000  0.1633  -2.3769   0.0000   0.0000   0.0000   0.2664
  -5.000  -0.6300   0.01159   0.00479   0.0141  1.0000  0.1738  -2.2995   0.0000   0.0000   0.0000   0.2677
  -4.900  -0.6223   0.01143   0.00468   0.0147  1.0000  0.1845  -2.2245   0.0000   0.0000   0.0000   0.2690
  -4.800  -0.6144   0.01130   0.00459   0.0153  1.0000  0.1961  -2.1614   0.0000   0.0000   0.0000   0.2703
  -4.700  -0.6068   0.01115   0.00450   0.0159  1.0000  0.2076  -2.0999   0.0000   0.0000   0.0000   0.2717
  -4.600  -0.5989   0.01102   0.00442   0.0165  1.0000  0.2204  -2.0444   0.0000   0.0000   0.0000   0.2731
  -4.500  -0.5914   0.01087   0.00433   0.0171  1.0000  0.2335  -1.9953   0.0000   0.0000   0.0000   0.2746
  -4.300  -0.5761   0.01062   0.00415   0.0183  1.0000  0.2608  -1.8969   0.0000   0.0000   0.0000   0.2776
  -4.200  -0.5684   0.01051   0.00409   0.0189  1.0000  0.2735  -1.8480   0.0000   0.0000   0.0000   0.2792
  -4.100  -0.5607   0.01040   0.00403   0.0195  1.0000  0.2870  -1.7996   0.0000   0.0000   0.0000   0.2808
  -4.000  -0.5532   0.01029   0.00397   0.0202  1.0000  0.2995  -1.7518   0.0000   0.0000   0.0000   0.2825
  -3.900  -0.5454   0.01020   0.00392   0.0208  1.0000  0.3127  -1.7038   0.0000   0.0000   0.0000   0.2842
  -3.800  -0.5381   0.01009   0.00387   0.0214  1.0000  0.3256  -1.6572   0.0000   0.0000   0.0000   0.2860
  -3.600  -0.5231   0.00992   0.00379   0.0227  1.0000  0.3524  -1.5645   0.0000   0.0000   0.0000   0.2898
  -3.500  -0.5157   0.00984   0.00375   0.0234  1.0000  0.3658  -1.5187   0.0000   0.0000   0.0000   0.2917
  -3.400  -0.5084   0.00976   0.00372   0.0240  1.0000  0.3800  -1.4737   0.0000   0.0000   0.0000   0.2937
  -3.300  -0.5012   0.00968   0.00370   0.0247  1.0000  0.3937  -1.4293   0.0000   0.0000   0.0000   0.2958
  -3.200  -0.4898   0.00960   0.00368   0.0245  0.9992  0.4112  -1.3751   0.0000   0.0000   0.0000   0.2967
  -3.000  -0.4585   0.00942   0.00366   0.0224  0.9950  0.4546  -1.2476   0.0000   0.0000   0.0000   0.2956
  -2.900  -0.4428   0.00933   0.00367   0.0213  0.9928  0.4764  -1.1848   0.0000   0.0000   0.0000   0.2950
  -2.800  -0.4266   0.00925   0.00368   0.0202  0.9908  0.4973  -1.1215   0.0000   0.0000   0.0000   0.2942
  -2.700  -0.4110   0.00917   0.00364   0.0192  0.9889  0.5170  -1.0634   0.0000   0.0000   0.0000   0.2936
  -2.600  -0.3974   0.00905   0.00360   0.0187  0.9861  0.5365  -1.0323   0.0000   0.0000   0.0000   0.2939
  -2.500  -0.3832   0.00894   0.00357   0.0180  0.9833  0.5568  -1.0007   0.0000   0.0000   0.0000   0.2940
  -2.400  -0.3683   0.00884   0.00355   0.0172  0.9804  0.5773  -0.9685   0.0000   0.0000   0.0000   0.2938
  -2.300  -0.3530   0.00876   0.00353   0.0164  0.9777  0.5970  -0.9359   0.0000   0.0000   0.0000   0.2934
  -2.200  -0.3371   0.00866   0.00352   0.0154  0.9752  0.6163  -0.9029   0.0000   0.0000   0.0000   0.2928
  -2.100  -0.3208   0.00857   0.00351   0.0144  0.9731  0.6353  -0.8695   0.0000   0.0000   0.0000   0.2918
  -2.000  -0.3041   0.00849   0.00350   0.0132  0.9713  0.6542  -0.8359   0.0000   0.0000   0.0000   0.2906
  -1.900  -0.2868   0.00841   0.00349   0.0120  0.9697  0.6723  -0.8019   0.0000   0.0000   0.0000   0.2890
  -1.800  -0.2766   0.00831   0.00344   0.0123  0.9652  0.6878  -0.7767   0.0000   0.0000   0.0000   0.2917
  -1.700  -0.2640   0.00821   0.00340   0.0121  0.9613  0.7031  -0.7487   0.0000   0.0000   0.0000   0.2932
  -1.600  -0.2496   0.00812   0.00337   0.0116  0.9580  0.7186  -0.7189   0.0000   0.0000   0.0000   0.2936
  -1.500  -0.2342   0.00804   0.00332   0.0108  0.9552  0.7346  -0.6906   0.0000   0.0000   0.0000   0.2934
  -1.400  -0.2182   0.00796   0.00330   0.0099  0.9528  0.7489  -0.6645   0.0000   0.0000   0.0000   0.2929
  -1.300  -0.2014   0.00788   0.00327   0.0089  0.9508  0.7631  -0.6379   0.0000   0.0000   0.0000   0.2915
  -1.200  -0.1843   0.00781   0.00325   0.0078  0.9490  0.7769  -0.6111   0.0000   0.0000   0.0000   0.2897
  -1.100  -0.1666   0.00774   0.00322   0.0066  0.9475  0.7898  -0.5840   0.0000   0.0000   0.0000   0.2869
  -1.000  -0.1563   0.00767   0.00319   0.0070  0.9421  0.8021  -0.5643   0.0000   0.0000   0.0000   0.2921
  -0.900  -0.1428   0.00759   0.00316   0.0067  0.9379  0.8136  -0.5440   0.0000   0.0000   0.0000   0.2945
  -0.800  -0.1278   0.00753   0.00313   0.0061  0.9344  0.8256  -0.5236   0.0000   0.0000   0.0000   0.2953
  -0.700  -0.1117   0.00746   0.00310   0.0053  0.9311  0.8361  -0.5024   0.0000   0.0000   0.0000   0.2950
  -0.600  -0.0950   0.00740   0.00307   0.0044  0.9282  0.8469  -0.4809   0.0000   0.0000   0.0000   0.2937
  -0.500  -0.0774   0.00735   0.00303   0.0033  0.9254  0.8570  -0.4599   0.0000   0.0000   0.0000   0.2898
  -0.400  -0.0632   0.00732   0.00304   0.0029  0.9201  0.8662  -0.4430   0.0000   0.0000   0.0000   0.2932
  -0.300  -0.0509   0.00729   0.00302   0.0029  0.9136  0.8760  -0.4277   0.0000   0.0000   0.0000   0.3042
  -0.200  -0.0334   0.00727   0.00302   0.0018  0.9087  0.8833  -0.4088   0.0000   0.0000   0.0000   0.3022
  -0.100  -0.0150   0.00725   0.00301   0.0006  0.9041  0.8903  -0.3894   0.0000   0.0000   0.0000   0.2852
   0.000   0.0000   0.00724   0.00299  -0.0000  0.8980  0.8981  -0.3742   0.0000   0.0000   0.0000   0.4201
   0.100   0.0151   0.00725   0.00301  -0.0006  0.8903  0.9042  -0.3892   0.0000   0.0000   0.0000   0.2863
   0.200   0.0335   0.00727   0.00302  -0.0018  0.8833  0.9088  -0.4087   0.0000   0.0000   0.0000   0.3027
   0.300   0.0509   0.00729   0.00302  -0.0029  0.8760  0.9136  -0.4276   0.0000   0.0000   0.0000   0.3044
   0.400   0.0632   0.00732   0.00304  -0.0029  0.8662  0.9202  -0.4429   0.0000   0.0000   0.0000   0.2933
   0.500   0.0776   0.00735   0.00303  -0.0033  0.8569  0.9254  -0.4598   0.0000   0.0000   0.0000   0.2900
   0.600   0.0951   0.00740   0.00307  -0.0044  0.8469  0.9282  -0.4812   0.0000   0.0000   0.0000   0.2939
   0.700   0.1118   0.00746   0.00310  -0.0053  0.8361  0.9312  -0.5028   0.0000   0.0000   0.0000   0.2951
   0.800   0.1279   0.00753   0.00313  -0.0061  0.8255  0.9344  -0.5240   0.0000   0.0000   0.0000   0.2954
   0.900   0.1429   0.00759   0.00316  -0.0067  0.8136  0.9380  -0.5444   0.0000   0.0000   0.0000   0.2946
   1.000   0.1564   0.00766   0.00319  -0.0070  0.8021  0.9422  -0.5639   0.0000   0.0000   0.0000   0.2922
   1.100   0.1667   0.00774   0.00322  -0.0066  0.7898  0.9475  -0.5837   0.0000   0.0000   0.0000   0.2871
   1.200   0.1844   0.00781   0.00325  -0.0078  0.7771  0.9490  -0.6108   0.0000   0.0000   0.0000   0.2898
   1.300   0.2016   0.00788   0.00327  -0.0089  0.7632  0.9508  -0.6376   0.0000   0.0000   0.0000   0.2916
   1.400   0.2183   0.00796   0.00330  -0.0100  0.7490  0.9529  -0.6642   0.0000   0.0000   0.0000   0.2929
   1.500   0.2344   0.00804   0.00332  -0.0108  0.7348  0.9552  -0.6903   0.0000   0.0000   0.0000   0.2935
   1.600   0.2497   0.00812   0.00337  -0.0116  0.7188  0.9581  -0.7186   0.0000   0.0000   0.0000   0.2937
   1.700   0.2641   0.00821   0.00340  -0.0121  0.7033  0.9614  -0.7485   0.0000   0.0000   0.0000   0.2932
   1.800   0.2767   0.00831   0.00344  -0.0123  0.6879  0.9653  -0.7764   0.0000   0.0000   0.0000   0.2917
   1.900   0.2870   0.00841   0.00349  -0.0120  0.6722  0.9697  -0.8017   0.0000   0.0000   0.0000   0.2891
   2.000   0.3043   0.00849   0.00350  -0.0133  0.6540  0.9713  -0.8357   0.0000   0.0000   0.0000   0.2907
   2.100   0.3211   0.00857   0.00351  -0.0144  0.6351  0.9731  -0.8694   0.0000   0.0000   0.0000   0.2919
   2.200   0.3373   0.00866   0.00352  -0.0154  0.6162  0.9753  -0.9027   0.0000   0.0000   0.0000   0.2928
   2.300   0.3531   0.00875   0.00353  -0.0164  0.5972  0.9777  -0.9356   0.0000   0.0000   0.0000   0.2935
   2.400   0.3684   0.00884   0.00355  -0.0173  0.5776  0.9804  -0.9682   0.0000   0.0000   0.0000   0.2939
   2.500   0.3831   0.00894   0.00357  -0.0180  0.5573  0.9833  -1.0002   0.0000   0.0000   0.0000   0.2940
   2.600   0.3973   0.00904   0.00360  -0.0187  0.5370  0.9861  -1.0318   0.0000   0.0000   0.0000   0.2939
   2.700   0.4108   0.00916   0.00364  -0.0192  0.5175  0.9888  -1.0630   0.0000   0.0000   0.0000   0.2936
   2.800   0.4263   0.00925   0.00368  -0.0202  0.4977  0.9908  -1.1205   0.0000   0.0000   0.0000   0.2941
   2.900   0.4425   0.00933   0.00367  -0.0213  0.4769  0.9927  -1.1838   0.0000   0.0000   0.0000   0.2949
   3.000   0.4583   0.00941   0.00366  -0.0224  0.4550  0.9950  -1.2467   0.0000   0.0000   0.0000   0.2955
   3.200   0.4899   0.00960   0.00368  -0.0245  0.4112  0.9992  -1.3747   0.0000   0.0000   0.0000   0.2967
   3.300   0.5011   0.00967   0.00370  -0.0247  0.3937  1.0000  -1.4287   0.0000   0.0000   0.0000   0.2958
   3.400   0.5083   0.00976   0.00372  -0.0240  0.3800  1.0000  -1.4730   0.0000   0.0000   0.0000   0.2937
   3.500   0.5156   0.00984   0.00375  -0.0233  0.3658  1.0000  -1.5180   0.0000   0.0000   0.0000   0.2917
   3.600   0.5231   0.00991   0.00379  -0.0227  0.3525  1.0000  -1.5638   0.0000   0.0000   0.0000   0.2898
   3.800   0.5380   0.01009   0.00387  -0.0214  0.3256  1.0000  -1.6565   0.0000   0.0000   0.0000   0.2860
   3.900   0.5454   0.01020   0.00392  -0.0208  0.3128  1.0000  -1.7031   0.0000   0.0000   0.0000   0.2842
   4.000   0.5531   0.01029   0.00397  -0.0202  0.2996  1.0000  -1.7511   0.0000   0.0000   0.0000   0.2825
   4.100   0.5607   0.01040   0.00403  -0.0195  0.2870  1.0000  -1.7989   0.0000   0.0000   0.0000   0.2808
   4.200   0.5683   0.01051   0.00408  -0.0189  0.2734  1.0000  -1.8472   0.0000   0.0000   0.0000   0.2792
   4.300   0.5760   0.01062   0.00415  -0.0183  0.2606  1.0000  -1.8962   0.0000   0.0000   0.0000   0.2776
   4.500   0.5914   0.01087   0.00433  -0.0171  0.2337  1.0000  -1.9946   0.0000   0.0000   0.0000   0.2746
   4.600   0.5988   0.01102   0.00441  -0.0165  0.2206  1.0000  -2.0437   0.0000   0.0000   0.0000   0.2731
   4.700   0.6068   0.01114   0.00450  -0.0159  0.2080  1.0000  -2.0975   0.0000   0.0000   0.0000   0.2717
   4.800   0.6144   0.01129   0.00459  -0.0153  0.1965  1.0000  -2.1588   0.0000   0.0000   0.0000   0.2703
   4.900   0.6223   0.01143   0.00468  -0.0147  0.1850  1.0000  -2.2226   0.0000   0.0000   0.0000   0.2690
   5.000   0.6299   0.01159   0.00479  -0.0141  0.1741  1.0000  -2.2975   0.0000   0.0000   0.0000   0.2677
   5.100   0.6379   0.01172   0.00489  -0.0135  0.1636  1.0000  -2.3749   0.0000   0.0000   0.0000   0.2664
   5.200   0.6454   0.01191   0.00501  -0.0129  0.1533  1.0000  -2.4506   0.0000   0.0000   0.0000   0.2651
   5.300   0.6537   0.01202   0.00512  -0.0123  0.1453  1.0000  -2.5310   0.0000   0.0000   0.0000   0.2640
   5.400   0.6615   0.01219   0.00524  -0.0117  0.1371  1.0000  -2.6093   0.0000   0.0000   0.0000   0.2628
   5.500   0.6693   0.01236   0.00538  -0.0111  0.1299  1.0000  -2.6880   0.0000   0.0000   0.0000   0.2616
   5.600   0.6776   0.01248   0.00551  -0.0106  0.1238  1.0000  -2.7704   0.0000   0.0000   0.0000   0.2605
   5.700   0.6854   0.01265   0.00564  -0.0100  0.1169  1.0000  -2.8513   0.0000   0.0000   0.0000   0.2594
   5.800   0.6926   0.01290   0.00584  -0.0093  0.1095  1.0000  -2.9282   0.0000   0.0000   0.0000   0.2581
   5.900   0.7013   0.01299   0.00597  -0.0088  0.1053  1.0000  -3.0143   0.0000   0.0000   0.0000   0.2572
   6.000   0.7095   0.01313   0.00611  -0.0083  0.0998  1.0000  -3.0986   0.0000   0.0000   0.0000   0.2562
   6.100   0.7171   0.01335   0.00627  -0.0076  0.0936  1.0000  -3.1804   0.0000   0.0000   0.0000   0.2551
   6.200   0.7241   0.01362   0.00652  -0.0069  0.0875  1.0000  -3.2572   0.0000   0.0000   0.0000   0.2539
   6.300   0.7328   0.01372   0.00666  -0.0064  0.0837  1.0000  -3.3458   0.0000   0.0000   0.0000   0.2530
   6.400   0.7410   0.01388   0.00682  -0.0058  0.0784  1.0000  -3.4315   0.0000   0.0000   0.0000   0.2521
   6.500   0.7480   0.01417   0.00705  -0.0051  0.0718  1.0000  -3.5098   0.0000   0.0000   0.0000   0.2509
   6.600   0.7546   0.01451   0.00740  -0.0043  0.0660  1.0000  -3.5804   0.0000   0.0000   0.0000   0.2497
   6.700   0.7629   0.01466   0.00763  -0.0037  0.0618  1.0000  -3.6679   0.0000   0.0000   0.0000   0.2488
   6.800   0.7705   0.01490   0.00785  -0.0031  0.0568  1.0000  -3.7481   0.0000   0.0000   0.0000   0.2478
   6.900   0.7755   0.01542   0.00832  -0.0020  0.0509  1.0000  -3.8053   0.0000   0.0000   0.0000   0.2463
   7.000   0.7809   0.01592   0.00885  -0.0009  0.0476  1.0000  -3.8619   0.0000   0.0000   0.0000   0.2448
   7.100   0.7895   0.01604   0.00901  -0.0004  0.0460  1.0000  -3.9510   0.0000   0.0000   0.0000   0.2440
   7.200   0.7975   0.01623   0.00922   0.0002  0.0440  1.0000  -4.0358   0.0000   0.0000   0.0000   0.2432
   7.300   0.8051   0.01646   0.00948   0.0009  0.0422  1.0000  -4.1188   0.0000   0.0000   0.0000   0.2423
   7.400   0.8124   0.01673   0.00978   0.0016  0.0407  1.0000  -4.2143   0.0000   0.0000   0.0000   0.2413
   7.500   0.8196   0.01701   0.01008   0.0023  0.0394  1.0000  -4.3108   0.0000   0.0000   0.0000   0.2403
   7.600   0.8267   0.01731   0.01040   0.0030  0.0381  1.0000  -4.4064   0.0000   0.0000   0.0000   0.2394
   7.700   0.8334   0.01766   0.01076   0.0038  0.0370  1.0000  -4.4987   0.0000   0.0000   0.0000   0.2384
   7.800   0.8395   0.01808   0.01121   0.0047  0.0358  1.0000  -4.5847   0.0000   0.0000   0.0000   0.2372
   7.900   0.8449   0.01864   0.01180   0.0057  0.0345  1.0000  -4.6604   0.0000   0.0000   0.0000   0.2360
   8.000   0.8489   0.01946   0.01269   0.0069  0.0332  1.0000  -4.7171   0.0000   0.0000   0.0000   0.2345
   8.100   0.8514   0.02073   0.01407   0.0083  0.0318  1.0000  -4.7467   0.0000   0.0000   0.0000   0.2329
   8.200   0.8601   0.02074   0.01410   0.0087  0.0314  1.0000  -4.8671   0.0000   0.0000   0.0000   0.2323
   8.300   0.8686   0.02079   0.01418   0.0092  0.0308  1.0000  -4.9860   0.0000   0.0000   0.0000   0.2318
   8.400   0.8766   0.02092   0.01434   0.0097  0.0300  1.0000  -5.1006   0.0000   0.0000   0.0000   0.2311
   8.500   0.8842   0.02113   0.01459   0.0103  0.0291  1.0000  -5.2085   0.0000   0.0000   0.0000   0.2304
   8.600   0.8913   0.02146   0.01497   0.0110  0.0283  1.0000  -5.3058   0.0000   0.0000   0.0000   0.2297
   8.700   0.8980   0.02184   0.01539   0.0118  0.0274  1.0000  -5.3986   0.0000   0.0000   0.0000   0.2288
   8.800   0.9046   0.02222   0.01583   0.0125  0.0266  1.0000  -5.4910   0.0000   0.0000   0.0000   0.2280
   8.900   0.9111   0.02261   0.01625   0.0133  0.0259  1.0000  -5.5838   0.0000   0.0000   0.0000   0.2271
   9.000   0.9174   0.02299   0.01668   0.0140  0.0251  1.0000  -5.6772   0.0000   0.0000   0.0000   0.2263
   9.100   0.9237   0.02338   0.01709   0.0148  0.0244  1.0000  -5.7712   0.0000   0.0000   0.0000   0.2255
   9.200   0.9296   0.02377   0.01752   0.0156  0.0238  1.0000  -5.8645   0.0000   0.0000   0.0000   0.2246
   9.300   0.9353   0.02422   0.01806   0.0164  0.0231  1.0000  -5.9570   0.0000   0.0000   0.0000   0.2238
   9.400   0.9402   0.02477   0.01865   0.0173  0.0225  1.0000  -6.0379   0.0000   0.0000   0.0000   0.2228
   9.500   0.9441   0.02553   0.01948   0.0183  0.0219  1.0000  -6.1000   0.0000   0.0000   0.0000   0.2217
   9.600   0.9463   0.02663   0.02067   0.0195  0.0212  1.0000  -6.1323   0.0000   0.0000   0.0000   0.2204
   9.700   0.9462   0.02821   0.02240   0.0209  0.0206  1.0000  -6.1241   0.0000   0.0000   0.0000   0.2188
   9.800   0.9431   0.03026   0.02466   0.0225  0.0201  1.0000  -6.0742   0.0000   0.0000   0.0000   0.2169
   9.900   0.9371   0.03261   0.02726   0.0244  0.0198  1.0000  -5.9953   0.0000   0.0000   0.0000   0.2147
  10.000   0.9386   0.03345   0.02819   0.0255  0.0196  1.0000  -6.0345   0.0000   0.0000   0.0000   0.2134
  10.100   0.9440   0.03362   0.02841   0.0263  0.0194  1.0000  -6.1295   0.0000   0.0000   0.0000   0.2126
  10.200   0.9486   0.03389   0.02874   0.0272  0.0191  1.0000  -6.2168   0.0000   0.0000   0.0000   0.2117
  10.300   0.9527   0.03424   0.02915   0.0281  0.0188  1.0000  -6.2982   0.0000   0.0000   0.0000   0.2108
  10.400   0.9562   0.03466   0.02963   0.0290  0.0185  1.0000  -6.3743   0.0000   0.0000   0.0000   0.2098
  10.500   0.9590   0.03512   0.03016   0.0300  0.0182  1.0000  -6.4456   0.0000   0.0000   0.0000   0.2088
  10.600   0.9612   0.03563   0.03073   0.0310  0.0178  1.0000  -6.5125   0.0000   0.0000   0.0000   0.2077
  10.700   0.9628   0.03617   0.03133   0.0320  0.0175  1.0000  -6.5749   0.0000   0.0000   0.0000   0.2065
  10.800   0.9631   0.03673   0.03195   0.0333  0.0172  1.0000  -6.6292   0.0000   0.0000   0.0000   0.2051
  10.900   0.9621   0.03730   0.03257   0.0347  0.0169  1.0000  -6.6745   0.0000   0.0000   0.0000   0.2034
  11.000   0.9604   0.03790   0.03324   0.0362  0.0167  1.0000  -6.7138   0.0000   0.0000   0.0000   0.2018
  11.100   0.9582   0.03857   0.03397   0.0375  0.0165  1.0000  -6.7473   0.0000   0.0000   0.0000   0.2001
  11.200   0.9554   0.03933   0.03479   0.0388  0.0163  1.0000  -6.7737   0.0000   0.0000   0.0000   0.1985
  11.300   0.9519   0.04018   0.03571   0.0401  0.0162  1.0000  -6.7907   0.0000   0.0000   0.0000   0.1969
  11.400   0.9476   0.04116   0.03677   0.0412  0.0161  1.0000  -6.7967   0.0000   0.0000   0.0000   0.1954
  11.500   0.9427   0.04221   0.03790   0.0421  0.0160  1.0000  -6.7967   0.0000   0.0000   0.0000   0.1940
  11.600   0.9374   0.04335   0.03912   0.0429  0.0160  1.0000  -6.7922   0.0000   0.0000   0.0000   0.1928
  11.700   0.9318   0.04458   0.04042   0.0435  0.0159  1.0000  -6.7830   0.0000   0.0000   0.0000   0.1917
  11.800   0.9257   0.04591   0.04183   0.0438  0.0159  1.0000  -6.7686   0.0000   0.0000   0.0000   0.1909
  11.900   0.9192   0.04736   0.04337   0.0439  0.0158  1.0000  -6.7486   0.0000   0.0000   0.0000   0.1902
  12.000   0.9123   0.04895   0.04503   0.0438  0.0158  1.0000  -6.7222   0.0000   0.0000   0.0000   0.1898
  12.100   0.9049   0.05070   0.04686   0.0434  0.0158  1.0000  -6.6889   0.0000   0.0000   0.0000   0.1897
  12.200   0.8970   0.05264   0.04888   0.0427  0.0158  1.0000  -6.6478   0.0000   0.0000   0.0000   0.1899
  12.300   0.8886   0.05479   0.05111   0.0417  0.0159  1.0000  -6.5977   0.0000   0.0000   0.0000   0.1904
  12.400   0.8796   0.05718   0.05358   0.0403  0.0159  1.0000  -6.5373   0.0000   0.0000   0.0000   0.1913
  12.500   0.8700   0.05986   0.05634   0.0386  0.0160  1.0000  -6.4648   0.0000   0.0000   0.0000   0.1925
  12.600   0.8595   0.06290   0.05945   0.0365  0.0161  1.0000  -6.3779   0.0000   0.0000   0.0000   0.1943
  12.700   0.8481   0.06632   0.06296   0.0340  0.0162  1.0000  -6.2733   0.0000   0.0000   0.0000   0.1965
  12.800   0.8354   0.07021   0.06693   0.0310  0.0164  1.0000  -6.1466   0.0000   0.0000   0.0000   0.1992
  12.900   0.8210   0.07473   0.07152   0.0277  0.0166  1.0000  -5.9892   0.0000   0.0000   0.0000   0.2026
  13.000   0.7932   0.08254   0.07943   0.0220  0.0174  1.0000  -5.6316   0.0000   0.0000   0.0000   0.2084
  13.200   0.6550   0.12456   0.12147   0.0007  0.0253  1.0000  -3.1207   0.0000   0.0000   0.0000   0.2368
  13.300   0.6482   0.12839   0.12528  -0.0008  0.0263  1.0000  -2.9706   0.0000   0.0000   0.0000   0.2392
  13.400   0.6440   0.13147   0.12835  -0.0020  0.0273  1.0000  -2.8709   0.0000   0.0000   0.0000   0.2410
  13.500   0.6412   0.13416   0.13103  -0.0029  0.0281  1.0000  -2.7984   0.0000   0.0000   0.0000   0.2424
  13.600   0.6390   0.13664   0.13350  -0.0037  0.0290  1.0000  -2.7417   0.0000   0.0000   0.0000   0.2437
  14.300   0.6309   0.15405   0.15087  -0.0080  0.0318  1.0000  -2.4435   0.0000   0.0000   0.0000   0.2501
  14.400   0.6317   0.15600   0.15282  -0.0088  0.0318  1.0000  -2.4185   0.0000   0.0000   0.0000   0.2513
  14.500   0.6325   0.15793   0.15474  -0.0096  0.0318  1.0000  -2.3940   0.0000   0.0000   0.0000   0.2524
  14.600   0.6334   0.15985   0.15666  -0.0103  0.0318  1.0000  -2.3700   0.0000   0.0000   0.0000   0.2535
  14.700   0.6345   0.16178   0.15859  -0.0111  0.0318  1.0000  -2.3462   0.0000   0.0000   0.0000   0.2546
  14.800   0.6356   0.16369   0.16049  -0.0118  0.0317  1.0000  -2.3224   0.0000   0.0000   0.0000   0.2556
  14.900   0.6368   0.16558   0.16238  -0.0125  0.0317  1.0000  -2.2985   0.0000   0.0000   0.0000   0.2567
  15.000   0.6381   0.16746   0.16426  -0.0133  0.0317  1.0000  -2.2745   0.0000   0.0000   0.0000   0.2577


