xflr5 v6.61

 Calculated polar for: SD8020-010-88

 1 1 Reynolds number fixed          Mach number fixed         

 xtrf =   1.000 (top)        1.000 (bottom)
 Mach =   0.000     Re =     0.275 e 6     Ncrit =   9.000

  alpha     CL        CD       CDp       Cm    Top Xtr Bot Xtr   Cpmin    Chinge    XCp    
 ------- -------- --------- --------- -------- ------- ------- -------- --------- ---------
 -10.000  -0.9535   0.03131   0.02567  -0.0243  1.0000  0.0210  -6.2189   0.0000   0.0000   0.0000   0.2151
  -9.900  -0.9536   0.02994   0.02417  -0.0230  1.0000  0.0214  -6.2141   0.0000   0.0000   0.0000   0.2165
  -9.800  -0.9520   0.02882   0.02295  -0.0219  1.0000  0.0218  -6.1859   0.0000   0.0000   0.0000   0.2178
  -9.700  -0.9490   0.02795   0.02200  -0.0208  1.0000  0.0223  -6.1351   0.0000   0.0000   0.0000   0.2189
  -9.600  -0.9449   0.02727   0.02127  -0.0199  1.0000  0.0229  -6.0675   0.0000   0.0000   0.0000   0.2199
  -9.500  -0.9402   0.02671   0.02066  -0.0190  1.0000  0.0234  -5.9895   0.0000   0.0000   0.0000   0.2209
  -9.400  -0.9350   0.02621   0.02012  -0.0182  1.0000  0.0240  -5.9062   0.0000   0.0000   0.0000   0.2217
  -9.300  -0.9295   0.02574   0.01954  -0.0174  1.0000  0.0246  -5.8187   0.0000   0.0000   0.0000   0.2226
  -9.200  -0.9237   0.02527   0.01903  -0.0166  1.0000  0.0252  -5.7340   0.0000   0.0000   0.0000   0.2235
  -9.100  -0.9179   0.02480   0.01851  -0.0158  1.0000  0.0259  -5.6496   0.0000   0.0000   0.0000   0.2243
  -9.000  -0.9118   0.02433   0.01798  -0.0150  1.0000  0.0266  -5.5654   0.0000   0.0000   0.0000   0.2252
  -8.900  -0.9057   0.02386   0.01746  -0.0142  1.0000  0.0274  -5.4811   0.0000   0.0000   0.0000   0.2261
  -8.800  -0.8993   0.02341   0.01694  -0.0134  1.0000  0.0281  -5.3959   0.0000   0.0000   0.0000   0.2269
  -8.700  -0.8928   0.02297   0.01644  -0.0127  1.0000  0.0289  -5.3088   0.0000   0.0000   0.0000   0.2278
  -8.600  -0.8859   0.02260   0.01602  -0.0120  1.0000  0.0297  -5.2158   0.0000   0.0000   0.0000   0.2286
  -8.500  -0.8783   0.02240   0.01578  -0.0114  1.0000  0.0305  -5.1089   0.0000   0.0000   0.0000   0.2292
  -8.400  -0.8702   0.02234   0.01569  -0.0108  1.0000  0.0312  -4.9929   0.0000   0.0000   0.0000   0.2298
  -8.300  -0.8616   0.02238   0.01570  -0.0104  1.0000  0.0317  -4.8712   0.0000   0.0000   0.0000   0.2304
  -8.200  -0.8584   0.02107   0.01427  -0.0092  1.0000  0.0331  -4.8385   0.0000   0.0000   0.0000   0.2318
  -8.100  -0.8546   0.02006   0.01318  -0.0080  1.0000  0.0346  -4.7905   0.0000   0.0000   0.0000   0.2332
  -8.000  -0.8492   0.01945   0.01255  -0.0070  1.0000  0.0359  -4.7149   0.0000   0.0000   0.0000   0.2344
  -7.900  -0.8430   0.01901   0.01208  -0.0062  1.0000  0.0370  -4.6280   0.0000   0.0000   0.0000   0.2354
  -7.800  -0.8363   0.01864   0.01169  -0.0054  1.0000  0.0380  -4.5359   0.0000   0.0000   0.0000   0.2364
  -7.700  -0.8293   0.01831   0.01134  -0.0047  1.0000  0.0391  -4.4412   0.0000   0.0000   0.0000   0.2373
  -7.600  -0.8222   0.01800   0.01100  -0.0040  1.0000  0.0402  -4.3464   0.0000   0.0000   0.0000   0.2382
  -7.500  -0.8150   0.01769   0.01066  -0.0032  1.0000  0.0415  -4.2525   0.0000   0.0000   0.0000   0.2392
  -7.400  -0.8078   0.01739   0.01033  -0.0025  1.0000  0.0429  -4.1596   0.0000   0.0000   0.0000   0.2401
  -7.300  -0.8003   0.01713   0.01003  -0.0018  1.0000  0.0445  -4.0726   0.0000   0.0000   0.0000   0.2411
  -7.200  -0.7924   0.01693   0.00980  -0.0012  1.0000  0.0462  -3.9889   0.0000   0.0000   0.0000   0.2419
  -7.100  -0.7838   0.01680   0.00964  -0.0007  1.0000  0.0477  -3.9003   0.0000   0.0000   0.0000   0.2426
  -7.000  -0.7784   0.01627   0.00907   0.0004  1.0000  0.0504  -3.8445   0.0000   0.0000   0.0000   0.2441
  -6.900  -0.7741   0.01566   0.00849   0.0016  1.0000  0.0556  -3.7947   0.0000   0.0000   0.0000   0.2457
  -6.800  -0.7669   0.01538   0.00824   0.0023  1.0000  0.0601  -3.7179   0.0000   0.0000   0.0000   0.2468
  -6.700  -0.7589   0.01518   0.00801   0.0029  1.0000  0.0647  -3.6376   0.0000   0.0000   0.0000   0.2477
  -6.600  -0.7509   0.01499   0.00773   0.0035  1.0000  0.0686  -3.5546   0.0000   0.0000   0.0000   0.2487
  -6.500  -0.7456   0.01450   0.00732   0.0045  1.0000  0.0765  -3.4919   0.0000   0.0000   0.0000   0.2502
  -6.400  -0.7378   0.01430   0.00713   0.0051  1.0000  0.0823  -3.4084   0.0000   0.0000   0.0000   0.2511
  -6.300  -0.7292   0.01419   0.00697   0.0056  1.0000  0.0867  -3.3213   0.0000   0.0000   0.0000   0.2520
  -6.200  -0.7219   0.01393   0.00672   0.0063  1.0000  0.0922  -3.2433   0.0000   0.0000   0.0000   0.2531
  -6.100  -0.7146   0.01368   0.00652   0.0070  1.0000  0.0985  -3.1638   0.0000   0.0000   0.0000   0.2543
  -6.000  -0.7066   0.01351   0.00637   0.0076  1.0000  0.1042  -3.0800   0.0000   0.0000   0.0000   0.2553
  -5.900  -0.6980   0.01341   0.00622   0.0081  1.0000  0.1088  -2.9942   0.0000   0.0000   0.0000   0.2562
  -5.800  -0.6907   0.01317   0.00602   0.0088  1.0000  0.1155  -2.9166   0.0000   0.0000   0.0000   0.2574
  -5.700  -0.6830   0.01297   0.00587   0.0094  1.0000  0.1223  -2.8365   0.0000   0.0000   0.0000   0.2585
  -5.600  -0.6748   0.01284   0.00573   0.0100  1.0000  0.1287  -2.7542   0.0000   0.0000   0.0000   0.2596
  -5.500  -0.6668   0.01268   0.00558   0.0105  1.0000  0.1353  -2.6744   0.0000   0.0000   0.0000   0.2607
  -5.400  -0.6593   0.01248   0.00544   0.0112  1.0000  0.1436  -2.5968   0.0000   0.0000   0.0000   0.2620
  -5.300  -0.6510   0.01235   0.00532   0.0117  1.0000  0.1520  -2.5164   0.0000   0.0000   0.0000   0.2631
  -5.200  -0.6434   0.01217   0.00519   0.0123  1.0000  0.1617  -2.4396   0.0000   0.0000   0.0000   0.2643
  -5.100  -0.6356   0.01202   0.00508   0.0129  1.0000  0.1723  -2.3622   0.0000   0.0000   0.0000   0.2656
  -5.000  -0.6278   0.01186   0.00497   0.0135  1.0000  0.1830  -2.2863   0.0000   0.0000   0.0000   0.2668
  -4.900  -0.6201   0.01170   0.00487   0.0141  1.0000  0.1946  -2.2131   0.0000   0.0000   0.0000   0.2681
  -4.800  -0.6123   0.01155   0.00476   0.0147  1.0000  0.2059  -2.1510   0.0000   0.0000   0.0000   0.2695
  -4.700  -0.6046   0.01141   0.00467   0.0153  1.0000  0.2187  -2.0893   0.0000   0.0000   0.0000   0.2709
  -4.600  -0.5971   0.01125   0.00457   0.0159  1.0000  0.2315  -2.0361   0.0000   0.0000   0.0000   0.2723
  -4.500  -0.5891   0.01114   0.00449   0.0165  1.0000  0.2449  -1.9860   0.0000   0.0000   0.0000   0.2737
  -4.400  -0.5818   0.01098   0.00437   0.0172  1.0000  0.2583  -1.9378   0.0000   0.0000   0.0000   0.2753
  -4.300  -0.5739   0.01087   0.00429   0.0178  1.0000  0.2712  -1.8883   0.0000   0.0000   0.0000   0.2768
  -4.200  -0.5665   0.01073   0.00422   0.0184  1.0000  0.2849  -1.8401   0.0000   0.0000   0.0000   0.2784
  -4.100  -0.5588   0.01062   0.00416   0.0190  1.0000  0.2976  -1.7918   0.0000   0.0000   0.0000   0.2800
  -4.000  -0.5511   0.01052   0.00410   0.0196  1.0000  0.3112  -1.7439   0.0000   0.0000   0.0000   0.2817
  -3.900  -0.5436   0.01041   0.00404   0.0203  1.0000  0.3242  -1.6967   0.0000   0.0000   0.0000   0.2835
  -3.800  -0.5359   0.01033   0.00399   0.0209  1.0000  0.3379  -1.6492   0.0000   0.0000   0.0000   0.2852
  -3.700  -0.5286   0.01021   0.00394   0.0216  1.0000  0.3516  -1.6033   0.0000   0.0000   0.0000   0.2871
  -3.600  -0.5211   0.01013   0.00390   0.0222  1.0000  0.3653  -1.5571   0.0000   0.0000   0.0000   0.2890
  -3.500  -0.5138   0.01004   0.00387   0.0229  1.0000  0.3798  -1.5118   0.0000   0.0000   0.0000   0.2910
  -3.400  -0.5066   0.00995   0.00384   0.0236  1.0000  0.3939  -1.4670   0.0000   0.0000   0.0000   0.2930
  -3.200  -0.4923   0.00978   0.00379   0.0250  1.0000  0.4257  -1.3789   0.0000   0.0000   0.0000   0.2973
  -3.100  -0.4854   0.00970   0.00378   0.0257  1.0000  0.4419  -1.3360   0.0000   0.0000   0.0000   0.2996
  -3.000  -0.4759   0.00962   0.00377   0.0259  0.9995  0.4601  -1.2872   0.0000   0.0000   0.0000   0.3012
  -2.900  -0.4601   0.00954   0.00377   0.0248  0.9974  0.4823  -1.2238   0.0000   0.0000   0.0000   0.3007
  -2.800  -0.4442   0.00947   0.00378   0.0237  0.9950  0.5035  -1.1610   0.0000   0.0000   0.0000   0.3003
  -2.700  -0.4282   0.00941   0.00379   0.0226  0.9926  0.5244  -1.0980   0.0000   0.0000   0.0000   0.2998
  -2.600  -0.4117   0.00935   0.00379   0.0215  0.9905  0.5463  -1.0503   0.0000   0.0000   0.0000   0.2991
  -2.500  -0.3968   0.00926   0.00379   0.0206  0.9882  0.5677  -1.0177   0.0000   0.0000   0.0000   0.2990
  -2.400  -0.3830   0.00914   0.00376   0.0201  0.9853  0.5878  -0.9866   0.0000   0.0000   0.0000   0.2995
  -2.300  -0.3684   0.00905   0.00375   0.0194  0.9822  0.6071  -0.9549   0.0000   0.0000   0.0000   0.2997
  -2.200  -0.3532   0.00897   0.00374   0.0186  0.9793  0.6262  -0.9226   0.0000   0.0000   0.0000   0.2997
  -2.100  -0.3375   0.00890   0.00373   0.0176  0.9765  0.6456  -0.8898   0.0000   0.0000   0.0000   0.2994
  -2.000  -0.3211   0.00882   0.00373   0.0166  0.9741  0.6653  -0.8565   0.0000   0.0000   0.0000   0.2989
  -1.900  -0.3044   0.00875   0.00373   0.0155  0.9720  0.6835  -0.8229   0.0000   0.0000   0.0000   0.2981
  -1.800  -0.2870   0.00868   0.00374   0.0143  0.9703  0.7009  -0.7890   0.0000   0.0000   0.0000   0.2970
  -1.700  -0.2742   0.00860   0.00370   0.0140  0.9668  0.7167  -0.7607   0.0000   0.0000   0.0000   0.2985
  -1.600  -0.2622   0.00850   0.00367   0.0140  0.9625  0.7323  -0.7336   0.0000   0.0000   0.0000   0.3007
  -1.500  -0.2480   0.00842   0.00362   0.0135  0.9590  0.7472  -0.7042   0.0000   0.0000   0.0000   0.3019
  -1.400  -0.2326   0.00835   0.00359   0.0127  0.9559  0.7621  -0.6787   0.0000   0.0000   0.0000   0.3022
  -1.300  -0.2164   0.00827   0.00358   0.0119  0.9534  0.7765  -0.6525   0.0000   0.0000   0.0000   0.3023
  -1.200  -0.1993   0.00821   0.00356   0.0108  0.9512  0.7900  -0.6257   0.0000   0.0000   0.0000   0.3017
  -1.100  -0.1818   0.00814   0.00353   0.0097  0.9493  0.8038  -0.5987   0.0000   0.0000   0.0000   0.3006
  -1.000  -0.1636   0.00808   0.00352   0.0084  0.9477  0.8158  -0.5711   0.0000   0.0000   0.0000   0.2987
  -0.900  -0.1520   0.00802   0.00349   0.0085  0.9429  0.8283  -0.5515   0.0000   0.0000   0.0000   0.3035
  -0.800  -0.1380   0.00796   0.00348   0.0081  0.9387  0.8391  -0.5318   0.0000   0.0000   0.0000   0.3066
  -0.700  -0.1224   0.00791   0.00345   0.0074  0.9352  0.8506  -0.5110   0.0000   0.0000   0.0000   0.3085
  -0.600  -0.1049   0.00786   0.00343   0.0064  0.9323  0.8605  -0.4887   0.0000   0.0000   0.0000   0.3085
  -0.500  -0.0871   0.00782   0.00342   0.0053  0.9294  0.8705  -0.4666   0.0000   0.0000   0.0000   0.3080
  -0.400  -0.0692   0.00778   0.00338   0.0041  0.9266  0.8794  -0.4471   0.0000   0.0000   0.0000   0.3067
  -0.300  -0.0483   0.00776   0.00338   0.0023  0.9242  0.8863  -0.4257   0.0000   0.0000   0.0000   0.2957
  -0.200  -0.0359   0.00776   0.00340   0.0023  0.9171  0.8949  -0.4104   0.0000   0.0000   0.0000   0.3127
  -0.100  -0.0208   0.00775   0.00338   0.0017  0.9113  0.9024  -0.3933   0.0000   0.0000   0.0000   0.3320
   0.000   0.0001   0.00775   0.00339  -0.0000  0.9068  0.9068  -0.3740   0.0000   0.0000   0.0000   0.4505
   0.100   0.0209   0.00775   0.00338  -0.0018  0.9023  0.9113  -0.3932   0.0000   0.0000   0.0000   0.3328
   0.200   0.0360   0.00776   0.00340  -0.0024  0.8948  0.9171  -0.4103   0.0000   0.0000   0.0000   0.3130
   0.300   0.0484   0.00776   0.00338  -0.0023  0.8862  0.9243  -0.4256   0.0000   0.0000   0.0000   0.2961
   0.400   0.0693   0.00778   0.00338  -0.0041  0.8793  0.9266  -0.4471   0.0000   0.0000   0.0000   0.3070
   0.500   0.0872   0.00782   0.00342  -0.0053  0.8704  0.9294  -0.4668   0.0000   0.0000   0.0000   0.3082
   0.600   0.1050   0.00786   0.00343  -0.0064  0.8605  0.9323  -0.4891   0.0000   0.0000   0.0000   0.3087
   0.700   0.1225   0.00791   0.00345  -0.0075  0.8506  0.9353  -0.5114   0.0000   0.0000   0.0000   0.3086
   0.800   0.1381   0.00796   0.00348  -0.0082  0.8391  0.9388  -0.5322   0.0000   0.0000   0.0000   0.3067
   0.900   0.1521   0.00802   0.00349  -0.0085  0.8283  0.9430  -0.5518   0.0000   0.0000   0.0000   0.3035
   1.000   0.1637   0.00808   0.00352  -0.0084  0.8158  0.9478  -0.5708   0.0000   0.0000   0.0000   0.2988
   1.100   0.1820   0.00814   0.00353  -0.0097  0.8038  0.9493  -0.5984   0.0000   0.0000   0.0000   0.3007
   1.200   0.1995   0.00820   0.00356  -0.0108  0.7901  0.9512  -0.6254   0.0000   0.0000   0.0000   0.3018
   1.300   0.2165   0.00827   0.00358  -0.0119  0.7766  0.9534  -0.6522   0.0000   0.0000   0.0000   0.3024
   1.400   0.2327   0.00835   0.00359  -0.0128  0.7622  0.9559  -0.6784   0.0000   0.0000   0.0000   0.3023
   1.500   0.2482   0.00842   0.00362  -0.0135  0.7473  0.9590  -0.7039   0.0000   0.0000   0.0000   0.3019
   1.600   0.2623   0.00850   0.00367  -0.0140  0.7325  0.9626  -0.7333   0.0000   0.0000   0.0000   0.3008
   1.700   0.2743   0.00860   0.00370  -0.0140  0.7169  0.9669  -0.7603   0.0000   0.0000   0.0000   0.2985
   1.800   0.2873   0.00868   0.00374  -0.0143  0.7010  0.9703  -0.7889   0.0000   0.0000   0.0000   0.2971
   1.900   0.3047   0.00875   0.00373  -0.0155  0.6835  0.9721  -0.8229   0.0000   0.0000   0.0000   0.2983
   2.000   0.3214   0.00882   0.00373  -0.0166  0.6651  0.9742  -0.8563   0.0000   0.0000   0.0000   0.2990
   2.100   0.3377   0.00890   0.00373  -0.0177  0.6455  0.9766  -0.8896   0.0000   0.0000   0.0000   0.2995
   2.200   0.3534   0.00897   0.00374  -0.0186  0.6261  0.9793  -0.9223   0.0000   0.0000   0.0000   0.2997
   2.300   0.3685   0.00905   0.00375  -0.0194  0.6073  0.9823  -0.9545   0.0000   0.0000   0.0000   0.2997
   2.400   0.3830   0.00914   0.00376  -0.0201  0.5882  0.9853  -0.9862   0.0000   0.0000   0.0000   0.2995
   2.500   0.3967   0.00925   0.00379  -0.0206  0.5682  0.9882  -1.0171   0.0000   0.0000   0.0000   0.2990
   2.600   0.4116   0.00934   0.00379  -0.0214  0.5469  0.9905  -1.0497   0.0000   0.0000   0.0000   0.2990
   2.700   0.4279   0.00941   0.00379  -0.0226  0.5249  0.9926  -1.0970   0.0000   0.0000   0.0000   0.2997
   2.800   0.4441   0.00947   0.00377  -0.0237  0.5038  0.9950  -1.1601   0.0000   0.0000   0.0000   0.3002
   2.900   0.4600   0.00953   0.00377  -0.0248  0.4826  0.9973  -1.2230   0.0000   0.0000   0.0000   0.3007
   3.000   0.4759   0.00962   0.00376  -0.0259  0.4604  0.9995  -1.2867   0.0000   0.0000   0.0000   0.3012
   3.100   0.4854   0.00970   0.00377  -0.0257  0.4421  1.0000  -1.3354   0.0000   0.0000   0.0000   0.2996
   3.200   0.4923   0.00978   0.00379  -0.0250  0.4259  1.0000  -1.3783   0.0000   0.0000   0.0000   0.2973
   3.400   0.5065   0.00995   0.00383  -0.0236  0.3940  1.0000  -1.4663   0.0000   0.0000   0.0000   0.2930
   3.500   0.5137   0.01004   0.00386  -0.0229  0.3798  1.0000  -1.5111   0.0000   0.0000   0.0000   0.2909
   3.600   0.5210   0.01013   0.00390  -0.0222  0.3653  1.0000  -1.5564   0.0000   0.0000   0.0000   0.2890
   3.700   0.5286   0.01021   0.00394  -0.0216  0.3516  1.0000  -1.6027   0.0000   0.0000   0.0000   0.2871
   3.800   0.5358   0.01033   0.00399  -0.0209  0.3380  1.0000  -1.6485   0.0000   0.0000   0.0000   0.2852
   3.900   0.5436   0.01041   0.00404  -0.0203  0.3243  1.0000  -1.6960   0.0000   0.0000   0.0000   0.2834
   4.000   0.5511   0.01052   0.00409  -0.0196  0.3113  1.0000  -1.7432   0.0000   0.0000   0.0000   0.2817
   4.100   0.5587   0.01062   0.00415  -0.0190  0.2977  1.0000  -1.7911   0.0000   0.0000   0.0000   0.2800
   4.200   0.5664   0.01073   0.00422  -0.0184  0.2848  1.0000  -1.8394   0.0000   0.0000   0.0000   0.2784
   4.300   0.5739   0.01087   0.00429  -0.0178  0.2711  1.0000  -1.8876   0.0000   0.0000   0.0000   0.2768
   4.400   0.5817   0.01098   0.00437  -0.0172  0.2581  1.0000  -1.9371   0.0000   0.0000   0.0000   0.2753
   4.500   0.5891   0.01114   0.00449  -0.0165  0.2448  1.0000  -1.9853   0.0000   0.0000   0.0000   0.2737
   4.600   0.5970   0.01125   0.00457  -0.0159  0.2315  1.0000  -2.0354   0.0000   0.0000   0.0000   0.2723
   4.700   0.6046   0.01141   0.00467  -0.0153  0.2189  1.0000  -2.0869   0.0000   0.0000   0.0000   0.2709
   4.800   0.6123   0.01155   0.00476  -0.0147  0.2063  1.0000  -2.1487   0.0000   0.0000   0.0000   0.2695
   4.900   0.6201   0.01170   0.00487  -0.0141  0.1950  1.0000  -2.2106   0.0000   0.0000   0.0000   0.2681
   5.000   0.6278   0.01185   0.00497  -0.0135  0.1834  1.0000  -2.2844   0.0000   0.0000   0.0000   0.2668
   5.100   0.6356   0.01202   0.00508  -0.0129  0.1727  1.0000  -2.3602   0.0000   0.0000   0.0000   0.2655
   5.200   0.6434   0.01217   0.00519  -0.0123  0.1620  1.0000  -2.4377   0.0000   0.0000   0.0000   0.2643
   5.300   0.6510   0.01235   0.00532  -0.0117  0.1521  1.0000  -2.5142   0.0000   0.0000   0.0000   0.2631
   5.400   0.6593   0.01247   0.00544  -0.0112  0.1437  1.0000  -2.5948   0.0000   0.0000   0.0000   0.2620
   5.500   0.6668   0.01268   0.00558  -0.0105  0.1353  1.0000  -2.6723   0.0000   0.0000   0.0000   0.2607
   5.600   0.6748   0.01284   0.00573  -0.0100  0.1287  1.0000  -2.7521   0.0000   0.0000   0.0000   0.2596
   5.700   0.6830   0.01297   0.00587  -0.0094  0.1223  1.0000  -2.8343   0.0000   0.0000   0.0000   0.2585
   5.800   0.6906   0.01317   0.00602  -0.0088  0.1154  1.0000  -2.9144   0.0000   0.0000   0.0000   0.2574
   5.900   0.6980   0.01341   0.00622  -0.0081  0.1088  1.0000  -2.9920   0.0000   0.0000   0.0000   0.2562
   6.000   0.7066   0.01351   0.00637  -0.0076  0.1041  1.0000  -3.0776   0.0000   0.0000   0.0000   0.2553
   6.100   0.7146   0.01368   0.00653  -0.0070  0.0983  1.0000  -3.1613   0.0000   0.0000   0.0000   0.2542
   6.200   0.7217   0.01394   0.00673  -0.0063  0.0919  1.0000  -3.2403   0.0000   0.0000   0.0000   0.2531
   6.300   0.7291   0.01419   0.00698  -0.0056  0.0866  1.0000  -3.3187   0.0000   0.0000   0.0000   0.2520
   6.400   0.7377   0.01431   0.00714  -0.0051  0.0821  1.0000  -3.4056   0.0000   0.0000   0.0000   0.2511
   6.500   0.7455   0.01451   0.00732  -0.0045  0.0764  1.0000  -3.4890   0.0000   0.0000   0.0000   0.2501
   6.600   0.7508   0.01500   0.00774  -0.0035  0.0685  1.0000  -3.5514   0.0000   0.0000   0.0000   0.2486
   6.700   0.7588   0.01519   0.00802  -0.0029  0.0648  1.0000  -3.6346   0.0000   0.0000   0.0000   0.2477
   6.800   0.7668   0.01539   0.00825  -0.0023  0.0603  1.0000  -3.7152   0.0000   0.0000   0.0000   0.2467
   6.900   0.7741   0.01566   0.00850  -0.0015  0.0559  1.0000  -3.7925   0.0000   0.0000   0.0000   0.2457
   7.000   0.7789   0.01621   0.00902  -0.0004  0.0509  1.0000  -3.8474   0.0000   0.0000   0.0000   0.2442
   7.100   0.7835   0.01684   0.00967   0.0007  0.0478  1.0000  -3.8958   0.0000   0.0000   0.0000   0.2426
   7.200   0.7921   0.01696   0.00983   0.0012  0.0464  1.0000  -3.9850   0.0000   0.0000   0.0000   0.2419
   7.300   0.8002   0.01715   0.01005   0.0018  0.0447  1.0000  -4.0693   0.0000   0.0000   0.0000   0.2410
   7.400   0.8078   0.01740   0.01034   0.0025  0.0431  1.0000  -4.1585   0.0000   0.0000   0.0000   0.2401
   7.500   0.8150   0.01770   0.01068   0.0032  0.0417  1.0000  -4.2514   0.0000   0.0000   0.0000   0.2392
   7.600   0.8222   0.01801   0.01101   0.0040  0.0404  1.0000  -4.3452   0.0000   0.0000   0.0000   0.2382
   7.700   0.8293   0.01832   0.01135   0.0047  0.0393  1.0000  -4.4399   0.0000   0.0000   0.0000   0.2373
   7.800   0.8363   0.01865   0.01170   0.0054  0.0382  1.0000  -4.5348   0.0000   0.0000   0.0000   0.2364
   7.900   0.8431   0.01901   0.01209   0.0062  0.0371  1.0000  -4.6277   0.0000   0.0000   0.0000   0.2354
   8.000   0.8494   0.01944   0.01254   0.0070  0.0360  1.0000  -4.7159   0.0000   0.0000   0.0000   0.2344
   8.100   0.8550   0.02001   0.01313   0.0079  0.0348  1.0000  -4.7941   0.0000   0.0000   0.0000   0.2333
   8.200   0.8590   0.02095   0.01414   0.0091  0.0333  1.0000  -4.8472   0.0000   0.0000   0.0000   0.2319
   8.300   0.8614   0.02245   0.01577   0.0104  0.0318  1.0000  -4.8676   0.0000   0.0000   0.0000   0.2304
   8.400   0.8700   0.02239   0.01574   0.0108  0.0313  1.0000  -4.9903   0.0000   0.0000   0.0000   0.2298
   8.500   0.8782   0.02244   0.01582   0.0114  0.0306  1.0000  -5.1074   0.0000   0.0000   0.0000   0.2292
   8.600   0.8859   0.02262   0.01604   0.0119  0.0298  1.0000  -5.2152   0.0000   0.0000   0.0000   0.2286
   8.700   0.8928   0.02298   0.01646   0.0127  0.0290  1.0000  -5.3091   0.0000   0.0000   0.0000   0.2278
   8.800   0.8994   0.02341   0.01695   0.0134  0.0282  1.0000  -5.3966   0.0000   0.0000   0.0000   0.2269
   8.900   0.9057   0.02387   0.01746   0.0142  0.0274  1.0000  -5.4819   0.0000   0.0000   0.0000   0.2261
   9.000   0.9119   0.02434   0.01799   0.0150  0.0267  1.0000  -5.5662   0.0000   0.0000   0.0000   0.2252
   9.100   0.9180   0.02481   0.01852   0.0158  0.0260  1.0000  -5.6503   0.0000   0.0000   0.0000   0.2244
   9.200   0.9239   0.02528   0.01904   0.0166  0.0253  1.0000  -5.7346   0.0000   0.0000   0.0000   0.2235
   9.300   0.9296   0.02574   0.01955   0.0174  0.0246  1.0000  -5.8193   0.0000   0.0000   0.0000   0.2226
   9.400   0.9351   0.02622   0.02012   0.0182  0.0240  1.0000  -5.9069   0.0000   0.0000   0.0000   0.2218
   9.500   0.9404   0.02671   0.02066   0.0190  0.0235  1.0000  -5.9905   0.0000   0.0000   0.0000   0.2209
   9.600   0.9452   0.02726   0.02126   0.0199  0.0229  1.0000  -6.0692   0.0000   0.0000   0.0000   0.2200
   9.700   0.9493   0.02793   0.02198   0.0208  0.0224  1.0000  -6.1380   0.0000   0.0000   0.0000   0.2190
   9.800   0.9524   0.02878   0.02290   0.0218  0.0219  1.0000  -6.1905   0.0000   0.0000   0.0000   0.2179
   9.900   0.9541   0.02987   0.02410   0.0229  0.0214  1.0000  -6.2205   0.0000   0.0000   0.0000   0.2166
  10.000   0.9541   0.03123   0.02559   0.0242  0.0210  1.0000  -6.2266   0.0000   0.0000   0.0000   0.2152
  10.100   0.9522   0.03283   0.02734   0.0257  0.0206  1.0000  -6.2100   0.0000   0.0000   0.0000   0.2135
  10.200   0.9483   0.03460   0.02928   0.0272  0.0203  1.0000  -6.1753   0.0000   0.0000   0.0000   0.2117
  10.300   0.9428   0.03643   0.03129   0.0289  0.0201  1.0000  -6.1298   0.0000   0.0000   0.0000   0.2097
  10.400   0.9360   0.03826   0.03328   0.0306  0.0199  1.0000  -6.0791   0.0000   0.0000   0.0000   0.2076
  10.500   0.9283   0.04001   0.03519   0.0323  0.0198  1.0000  -6.0281   0.0000   0.0000   0.0000   0.2054
  10.600   0.9200   0.04157   0.03689   0.0341  0.0197  1.0000  -5.9817   0.0000   0.0000   0.0000   0.2030
  10.700   0.9177   0.04202   0.03738   0.0356  0.0196  1.0000  -6.0196   0.0000   0.0000   0.0000   0.2011
  10.800   0.9205   0.04192   0.03731   0.0367  0.0194  1.0000  -6.1116   0.0000   0.0000   0.0000   0.1999
  10.900   0.9211   0.04216   0.03760   0.0379  0.0192  1.0000  -6.1773   0.0000   0.0000   0.0000   0.1985
  11.000   0.9206   0.04258   0.03807   0.0390  0.0190  1.0000  -6.2296   0.0000   0.0000   0.0000   0.1971
  11.100   0.9192   0.04314   0.03868   0.0400  0.0188  1.0000  -6.2714   0.0000   0.0000   0.0000   0.1958
  11.200   0.9170   0.04383   0.03943   0.0410  0.0186  1.0000  -6.3038   0.0000   0.0000   0.0000   0.1945
  11.300   0.9140   0.04464   0.04031   0.0418  0.0185  1.0000  -6.3273   0.0000   0.0000   0.0000   0.1933
  11.400   0.9103   0.04557   0.04131   0.0425  0.0183  1.0000  -6.3425   0.0000   0.0000   0.0000   0.1922
  11.500   0.9059   0.04663   0.04244   0.0430  0.0182  1.0000  -6.3492   0.0000   0.0000   0.0000   0.1913
  11.600   0.9007   0.04783   0.04371   0.0433  0.0181  1.0000  -6.3475   0.0000   0.0000   0.0000   0.1905
  11.700   0.8949   0.04918   0.04513   0.0434  0.0180  1.0000  -6.3372   0.0000   0.0000   0.0000   0.1899
  11.800   0.8884   0.05069   0.04672   0.0432  0.0180  1.0000  -6.3177   0.0000   0.0000   0.0000   0.1896
  11.900   0.8812   0.05240   0.04850   0.0428  0.0179  1.0000  -6.2885   0.0000   0.0000   0.0000   0.1895
  12.000   0.8732   0.05434   0.05052   0.0420  0.0180  1.0000  -6.2484   0.0000   0.0000   0.0000   0.1897
  12.100   0.8643   0.05655   0.05280   0.0409  0.0180  1.0000  -6.1944   0.0000   0.0000   0.0000   0.1903
  12.200   0.8542   0.05911   0.05544   0.0394  0.0181  1.0000  -6.1227   0.0000   0.0000   0.0000   0.1913
  12.300   0.8421   0.06221   0.05862   0.0374  0.0183  1.0000  -6.0229   0.0000   0.0000   0.0000   0.1929
  12.400   0.8251   0.06641   0.06291   0.0344  0.0187  1.0000  -5.8578   0.0000   0.0000   0.0000   0.1953
  12.700   0.7733   0.08106   0.07776   0.0246  0.0199  1.0000  -5.2740   0.0000   0.0000   0.0000   0.2049
  12.800   0.7686   0.08388   0.08061   0.0226  0.0200  1.0000  -5.2267   0.0000   0.0000   0.0000   0.2072
  12.900   0.7637   0.08679   0.08356   0.0206  0.0201  1.0000  -5.1743   0.0000   0.0000   0.0000   0.2096
  13.000   0.7588   0.08981   0.08660   0.0185  0.0202  1.0000  -5.1149   0.0000   0.0000   0.0000   0.2119
  13.100   0.7534   0.09301   0.08983   0.0165  0.0204  1.0000  -5.0440   0.0000   0.0000   0.0000   0.2144
  13.200   0.7471   0.09662   0.09347   0.0143  0.0206  1.0000  -4.9475   0.0000   0.0000   0.0000   0.2172
  13.300   0.6462   0.12896   0.12571  -0.0008  0.0281  1.0000  -2.9440   0.0000   0.0000   0.0000   0.2392
  13.400   0.6433   0.13159   0.12832  -0.0018  0.0287  1.0000  -2.8771   0.0000   0.0000   0.0000   0.2407
  13.500   0.6408   0.13411   0.13084  -0.0026  0.0294  1.0000  -2.8185   0.0000   0.0000   0.0000   0.2419
  13.600   0.6226   0.14396   0.14067  -0.0069  0.0408  1.0000  -2.2672   0.0000   0.0000   0.0000   0.2495
  13.700   0.6227   0.14585   0.14256  -0.0077  0.0405  1.0000  -2.2453   0.0000   0.0000   0.0000   0.2506
  13.800   0.6230   0.14767   0.14437  -0.0084  0.0402  1.0000  -2.2273   0.0000   0.0000   0.0000   0.2517
  13.900   0.6237   0.14940   0.14610  -0.0091  0.0398  1.0000  -2.2138   0.0000   0.0000   0.0000   0.2528
  14.000   0.6247   0.15103   0.14773  -0.0098  0.0392  1.0000  -2.2071   0.0000   0.0000   0.0000   0.2537
  14.100   0.6261   0.15252   0.14921  -0.0104  0.0385  1.0000  -2.2091   0.0000   0.0000   0.0000   0.2545
  14.200   0.6283   0.15382   0.15051  -0.0108  0.0376  1.0000  -2.2239   0.0000   0.0000   0.0000   0.2550
  14.300   0.6316   0.15478   0.15147  -0.0110  0.0367  1.0000  -2.2621   0.0000   0.0000   0.0000   0.2551
  14.400   0.6388   0.15467   0.15137  -0.0103  0.0353  1.0000  -2.3776   0.0000   0.0000   0.0000   0.2537
  14.500   0.6498   0.15298   0.14971  -0.0083  0.0334  1.0000  -2.6170   0.0000   0.0000   0.0000   0.2499
  14.600   0.6477   0.15552   0.15224  -0.0088  0.0326  1.0000  -2.5900   0.0000   0.0000   0.0000   0.2507
  14.700   0.6363   0.16175   0.15842  -0.0107  0.0319  1.0000  -2.3846   0.0000   0.0000   0.0000   0.2539


