xflr5 v6.61

 Calculated polar for: SD8020-010-88

 1 1 Reynolds number fixed          Mach number fixed         

 xtrf =   1.000 (top)        1.000 (bottom)
 Mach =   0.000     Re =     0.425 e 6     Ncrit =   9.000

  alpha     CL        CD       CDp       Cm    Top Xtr Bot Xtr   Cpmin    Chinge    XCp    
 ------- -------- --------- --------- -------- ------- ------- -------- --------- ---------
 -10.000  -0.9933   0.02355   0.01795  -0.0189  1.0000  0.0146  -6.9850   0.0000   0.0000   0.0000   0.2214
  -9.900  -0.9871   0.02333   0.01772  -0.0182  1.0000  0.0151  -6.8638   0.0000   0.0000   0.0000   0.2221
  -9.800  -0.9806   0.02312   0.01750  -0.0176  1.0000  0.0156  -6.7428   0.0000   0.0000   0.0000   0.2227
  -9.700  -0.9741   0.02290   0.01726  -0.0169  1.0000  0.0161  -6.6252   0.0000   0.0000   0.0000   0.2234
  -9.600  -0.9675   0.02266   0.01700  -0.0162  1.0000  0.0167  -6.5122   0.0000   0.0000   0.0000   0.2241
  -9.500  -0.9610   0.02239   0.01670  -0.0155  1.0000  0.0172  -6.4033   0.0000   0.0000   0.0000   0.2249
  -9.400  -0.9544   0.02211   0.01638  -0.0148  1.0000  0.0178  -6.2966   0.0000   0.0000   0.0000   0.2256
  -9.300  -0.9477   0.02184   0.01607  -0.0141  1.0000  0.0183  -6.1901   0.0000   0.0000   0.0000   0.2264
  -9.200  -0.9407   0.02158   0.01577  -0.0134  1.0000  0.0187  -6.0818   0.0000   0.0000   0.0000   0.2271
  -9.100  -0.9335   0.02134   0.01545  -0.0128  1.0000  0.0191  -5.9694   0.0000   0.0000   0.0000   0.2278
  -9.000  -0.9260   0.02114   0.01522  -0.0122  1.0000  0.0194  -5.8566   0.0000   0.0000   0.0000   0.2285
  -8.900  -0.9182   0.02099   0.01504  -0.0116  1.0000  0.0196  -5.7397   0.0000   0.0000   0.0000   0.2291
  -8.800  -0.9143   0.02020   0.01417  -0.0104  1.0000  0.0201  -5.6821   0.0000   0.0000   0.0000   0.2304
  -8.700  -0.9147   0.01890   0.01272  -0.0086  1.0000  0.0212  -5.6813   0.0000   0.0000   0.0000   0.2325
  -8.600  -0.9116   0.01816   0.01191  -0.0073  1.0000  0.0222  -5.6267   0.0000   0.0000   0.0000   0.2340
  -8.500  -0.9064   0.01769   0.01140  -0.0063  1.0000  0.0232  -5.5420   0.0000   0.0000   0.0000   0.2352
  -8.400  -0.9000   0.01735   0.01105  -0.0055  1.0000  0.0241  -5.4418   0.0000   0.0000   0.0000   0.2361
  -8.300  -0.8930   0.01708   0.01076  -0.0048  1.0000  0.0249  -5.3342   0.0000   0.0000   0.0000   0.2370
  -8.200  -0.8856   0.01684   0.01051  -0.0041  1.0000  0.0256  -5.2237   0.0000   0.0000   0.0000   0.2378
  -8.100  -0.8781   0.01663   0.01027  -0.0035  1.0000  0.0264  -5.1122   0.0000   0.0000   0.0000   0.2386
  -8.000  -0.8703   0.01643   0.01006  -0.0029  1.0000  0.0273  -4.9983   0.0000   0.0000   0.0000   0.2393
  -7.900  -0.8624   0.01625   0.00986  -0.0023  1.0000  0.0281  -4.8841   0.0000   0.0000   0.0000   0.2401
  -7.800  -0.8545   0.01608   0.00966  -0.0017  1.0000  0.0290  -4.7709   0.0000   0.0000   0.0000   0.2408
  -7.700  -0.8465   0.01590   0.00946  -0.0011  1.0000  0.0298  -4.6592   0.0000   0.0000   0.0000   0.2416
  -7.600  -0.8386   0.01572   0.00926  -0.0006  1.0000  0.0304  -4.5486   0.0000   0.0000   0.0000   0.2424
  -7.500  -0.8306   0.01555   0.00906   0.0000  1.0000  0.0310  -4.4392   0.0000   0.0000   0.0000   0.2432
  -7.400  -0.8225   0.01538   0.00886   0.0006  1.0000  0.0314  -4.3308   0.0000   0.0000   0.0000   0.2440
  -7.300  -0.8145   0.01521   0.00866   0.0012  1.0000  0.0317  -4.2238   0.0000   0.0000   0.0000   0.2448
  -7.200  -0.8084   0.01482   0.00822   0.0022  1.0000  0.0325  -4.1404   0.0000   0.0000   0.0000   0.2461
  -7.100  -0.8041   0.01423   0.00756   0.0035  1.0000  0.0348  -4.0827   0.0000   0.0000   0.0000   0.2478
  -7.000  -0.7980   0.01384   0.00715   0.0044  1.0000  0.0378  -4.0177   0.0000   0.0000   0.0000   0.2492
  -6.900  -0.7908   0.01357   0.00691   0.0052  1.0000  0.0408  -3.9375   0.0000   0.0000   0.0000   0.2502
  -6.800  -0.7830   0.01337   0.00672   0.0058  1.0000  0.0440  -3.8520   0.0000   0.0000   0.0000   0.2512
  -6.700  -0.7747   0.01323   0.00657   0.0063  1.0000  0.0470  -3.7625   0.0000   0.0000   0.0000   0.2521
  -6.600  -0.7674   0.01297   0.00630   0.0071  1.0000  0.0519  -3.6854   0.0000   0.0000   0.0000   0.2532
  -6.500  -0.7607   0.01266   0.00602   0.0079  1.0000  0.0598  -3.6061   0.0000   0.0000   0.0000   0.2544
  -6.400  -0.7525   0.01251   0.00588   0.0084  1.0000  0.0648  -3.5179   0.0000   0.0000   0.0000   0.2554
  -6.300  -0.7436   0.01245   0.00578   0.0089  1.0000  0.0673  -3.4253   0.0000   0.0000   0.0000   0.2562
  -6.200  -0.7365   0.01218   0.00555   0.0096  1.0000  0.0746  -3.3472   0.0000   0.0000   0.0000   0.2574
  -6.100  -0.7287   0.01200   0.00541   0.0102  1.0000  0.0800  -3.2617   0.0000   0.0000   0.0000   0.2585
  -6.000  -0.7204   0.01187   0.00529   0.0108  1.0000  0.0844  -3.1743   0.0000   0.0000   0.0000   0.2594
  -5.900  -0.7118   0.01179   0.00518   0.0112  1.0000  0.0875  -3.0856   0.0000   0.0000   0.0000   0.2604
  -5.800  -0.7039   0.01163   0.00503   0.0119  1.0000  0.0931  -3.0029   0.0000   0.0000   0.0000   0.2615
  -5.700  -0.6961   0.01146   0.00490   0.0125  1.0000  0.0993  -2.9202   0.0000   0.0000   0.0000   0.2627
  -5.600  -0.6879   0.01133   0.00480   0.0130  1.0000  0.1046  -2.8363   0.0000   0.0000   0.0000   0.2638
  -5.500  -0.6795   0.01124   0.00469   0.0135  1.0000  0.1088  -2.7517   0.0000   0.0000   0.0000   0.2648
  -5.400  -0.6715   0.01110   0.00457   0.0141  1.0000  0.1154  -2.6710   0.0000   0.0000   0.0000   0.2660
  -5.300  -0.6637   0.01095   0.00447   0.0147  1.0000  0.1225  -2.5910   0.0000   0.0000   0.0000   0.2673
  -5.200  -0.6555   0.01084   0.00438   0.0153  1.0000  0.1288  -2.5101   0.0000   0.0000   0.0000   0.2685
  -5.100  -0.6473   0.01074   0.00428   0.0158  1.0000  0.1350  -2.4303   0.0000   0.0000   0.0000   0.2697
  -5.000  -0.6396   0.01060   0.00419   0.0164  1.0000  0.1435  -2.3532   0.0000   0.0000   0.0000   0.2710
  -4.900  -0.6315   0.01050   0.00411   0.0170  1.0000  0.1513  -2.2752   0.0000   0.0000   0.0000   0.2723
  -4.800  -0.6235   0.01039   0.00403   0.0176  1.0000  0.1600  -2.2032   0.0000   0.0000   0.0000   0.2736
  -4.700  -0.6157   0.01026   0.00396   0.0181  1.0000  0.1697  -2.1405   0.0000   0.0000   0.0000   0.2750
  -4.600  -0.6076   0.01019   0.00389   0.0187  1.0000  0.1776  -2.0795   0.0000   0.0000   0.0000   0.2764
  -4.500  -0.6000   0.01006   0.00383   0.0193  1.0000  0.1884  -2.0295   0.0000   0.0000   0.0000   0.2779
  -4.400  -0.5920   0.00998   0.00373   0.0199  1.0000  0.1984  -1.9793   0.0000   0.0000   0.0000   0.2794
  -4.300  -0.5845   0.00985   0.00368   0.0205  1.0000  0.2102  -1.9300   0.0000   0.0000   0.0000   0.2809
  -4.200  -0.5767   0.00977   0.00363   0.0211  1.0000  0.2222  -1.8801   0.0000   0.0000   0.0000   0.2825
  -4.100  -0.5677   0.00964   0.00358   0.0214  0.9997  0.2375  -1.8276   0.0000   0.0000   0.0000   0.2837
  -4.000  -0.5528   0.00950   0.00353   0.0204  0.9984  0.2561  -1.7601   0.0000   0.0000   0.0000   0.2831
  -3.900  -0.5378   0.00938   0.00348   0.0195  0.9969  0.2742  -1.6931   0.0000   0.0000   0.0000   0.2824
  -3.800  -0.5227   0.00928   0.00343   0.0186  0.9953  0.2912  -1.6264   0.0000   0.0000   0.0000   0.2817
  -3.700  -0.5076   0.00916   0.00339   0.0176  0.9936  0.3070  -1.5606   0.0000   0.0000   0.0000   0.2809
  -3.600  -0.4921   0.00906   0.00335   0.0166  0.9921  0.3224  -1.4946   0.0000   0.0000   0.0000   0.2800
  -3.500  -0.4761   0.00899   0.00332   0.0155  0.9907  0.3384  -1.4284   0.0000   0.0000   0.0000   0.2789
  -3.400  -0.4604   0.00888   0.00328   0.0144  0.9895  0.3553  -1.3633   0.0000   0.0000   0.0000   0.2777
  -3.300  -0.4475   0.00875   0.00321   0.0140  0.9875  0.3702  -1.3057   0.0000   0.0000   0.0000   0.2777
  -3.100  -0.4199   0.00851   0.00309   0.0128  0.9829  0.4031  -1.1881   0.0000   0.0000   0.0000   0.2770
  -3.000  -0.4056   0.00838   0.00304   0.0121  0.9806  0.4217  -1.1290   0.0000   0.0000   0.0000   0.2763
  -2.900  -0.3908   0.00826   0.00296   0.0113  0.9784  0.4412  -1.0684   0.0000   0.0000   0.0000   0.2754
  -2.800  -0.3757   0.00814   0.00292   0.0104  0.9763  0.4607  -1.0329   0.0000   0.0000   0.0000   0.2743
  -2.600  -0.3444   0.00792   0.00284   0.0084  0.9729  0.4976  -0.9661   0.0000   0.0000   0.0000   0.2711
  -2.500  -0.3284   0.00781   0.00280   0.0074  0.9715  0.5167  -0.9327   0.0000   0.0000   0.0000   0.2692
  -2.400  -0.3122   0.00769   0.00277   0.0063  0.9702  0.5366  -0.8993   0.0000   0.0000   0.0000   0.2669
  -2.300  -0.2999   0.00758   0.00272   0.0061  0.9674  0.5539  -0.8710   0.0000   0.0000   0.0000   0.2671
  -2.200  -0.2892   0.00747   0.00266   0.0063  0.9633  0.5701  -0.8448   0.0000   0.0000   0.0000   0.2685
  -2.100  -0.2763   0.00735   0.00261   0.0059  0.9600  0.5858  -0.8160   0.0000   0.0000   0.0000   0.2684
  -2.000  -0.2622   0.00725   0.00257   0.0054  0.9572  0.6022  -0.7860   0.0000   0.0000   0.0000   0.2674
  -1.800  -0.2323   0.00703   0.00249   0.0039  0.9527  0.6367  -0.7246   0.0000   0.0000   0.0000   0.2636
  -1.700  -0.2167   0.00693   0.00243   0.0030  0.9508  0.6521  -0.6935   0.0000   0.0000   0.0000   0.2608
  -1.600  -0.2006   0.00684   0.00238   0.0020  0.9491  0.6673  -0.6675   0.0000   0.0000   0.0000   0.2571
  -1.500  -0.1850   0.00674   0.00234   0.0012  0.9472  0.6827  -0.6420   0.0000   0.0000   0.0000   0.2533
  -1.400  -0.1762   0.00665   0.00231   0.0018  0.9412  0.6955  -0.6234   0.0000   0.0000   0.0000   0.2574
  -1.300  -0.1640   0.00657   0.00227   0.0018  0.9365  0.7095  -0.6016   0.0000   0.0000   0.0000   0.2577
  -1.200  -0.1505   0.00648   0.00223   0.0014  0.9324  0.7220  -0.5787   0.0000   0.0000   0.0000   0.2563
  -1.100  -0.1355   0.00641   0.00219   0.0007  0.9289  0.7352  -0.5544   0.0000   0.0000   0.0000   0.2522
  -1.000  -0.1202   0.00632   0.00215  -0.0000  0.9257  0.7476  -0.5337   0.0000   0.0000   0.0000   0.2467
  -0.900  -0.1083   0.00627   0.00212  -0.0000  0.9198  0.7598  -0.5160   0.0000   0.0000   0.0000   0.2468
  -0.800  -0.0965   0.00619   0.00210   0.0000  0.9132  0.7709  -0.4984   0.0000   0.0000   0.0000   0.2472
  -0.700  -0.0830   0.00614   0.00207  -0.0003  0.9074  0.7824  -0.4795   0.0000   0.0000   0.0000   0.2431
  -0.600  -0.0689   0.00608   0.00203  -0.0008  0.9021  0.7929  -0.4607   0.0000   0.0000   0.0000   0.2359
  -0.500  -0.0579   0.00605   0.00202  -0.0006  0.8944  0.8039  -0.4463   0.0000   0.0000   0.0000   0.2373
  -0.400  -0.0461   0.00601   0.00200  -0.0005  0.8864  0.8137  -0.4313   0.0000   0.0000   0.0000   0.2361
  -0.300  -0.0335   0.00598   0.00198  -0.0006  0.8791  0.8242  -0.4159   0.0000   0.0000   0.0000   0.2294
  -0.200  -0.0227   0.00596   0.00197  -0.0003  0.8706  0.8340  -0.4017   0.0000   0.0000   0.0000   0.2319
  -0.100  -0.0113   0.00595   0.00197  -0.0002  0.8615  0.8435  -0.3873   0.0000   0.0000   0.0000   0.2318
   0.000   0.0000   0.00595   0.00195   0.0000  0.8530  0.8530  -0.3746   0.0000   0.0000   0.0000  -1.4993
   0.100   0.0113   0.00595   0.00197   0.0002  0.8434  0.8616  -0.3873   0.0000   0.0000   0.0000   0.2316
   0.200   0.0227   0.00596   0.00197   0.0003  0.8339  0.8707  -0.4015   0.0000   0.0000   0.0000   0.2318
   0.300   0.0335   0.00598   0.00198   0.0006  0.8241  0.8791  -0.4157   0.0000   0.0000   0.0000   0.2294
   0.400   0.0461   0.00601   0.00200   0.0005  0.8135  0.8864  -0.4311   0.0000   0.0000   0.0000   0.2361
   0.500   0.0579   0.00605   0.00202   0.0006  0.8037  0.8944  -0.4461   0.0000   0.0000   0.0000   0.2373
   0.600   0.0689   0.00608   0.00203   0.0008  0.7928  0.9021  -0.4606   0.0000   0.0000   0.0000   0.2359
   0.700   0.0831   0.00614   0.00206   0.0003  0.7824  0.9074  -0.4799   0.0000   0.0000   0.0000   0.2432
   0.800   0.0966   0.00619   0.00210  -0.0000  0.7710  0.9132  -0.4988   0.0000   0.0000   0.0000   0.2472
   1.000   0.1202   0.00632   0.00215   0.0000  0.7478  0.9256  -0.5341   0.0000   0.0000   0.0000   0.2469
   1.100   0.1356   0.00641   0.00219  -0.0007  0.7354  0.9289  -0.5547   0.0000   0.0000   0.0000   0.2523
   1.200   0.1506   0.00648   0.00223  -0.0014  0.7223  0.9325  -0.5783   0.0000   0.0000   0.0000   0.2564
   1.300   0.1641   0.00657   0.00227  -0.0018  0.7097  0.9365  -0.6013   0.0000   0.0000   0.0000   0.2578
   1.400   0.1763   0.00665   0.00231  -0.0018  0.6959  0.9412  -0.6231   0.0000   0.0000   0.0000   0.2575
   1.500   0.1851   0.00674   0.00234  -0.0012  0.6831  0.9472  -0.6417   0.0000   0.0000   0.0000   0.2534
   1.600   0.2007   0.00684   0.00238  -0.0021  0.6677  0.9491  -0.6672   0.0000   0.0000   0.0000   0.2572
   1.700   0.2167   0.00693   0.00243  -0.0030  0.6522  0.9508  -0.6932   0.0000   0.0000   0.0000   0.2609
   1.800   0.2324   0.00703   0.00248  -0.0039  0.6365  0.9527  -0.7243   0.0000   0.0000   0.0000   0.2637
   2.000   0.2623   0.00725   0.00257  -0.0054  0.6018  0.9572  -0.7856   0.0000   0.0000   0.0000   0.2674
   2.100   0.2764   0.00735   0.00261  -0.0059  0.5855  0.9600  -0.8156   0.0000   0.0000   0.0000   0.2684
   2.200   0.2893   0.00747   0.00266  -0.0063  0.5701  0.9633  -0.8444   0.0000   0.0000   0.0000   0.2685
   2.300   0.2999   0.00758   0.00272  -0.0061  0.5542  0.9675  -0.8705   0.0000   0.0000   0.0000   0.2671
   2.400   0.3124   0.00769   0.00277  -0.0063  0.5370  0.9702  -0.8991   0.0000   0.0000   0.0000   0.2670
   2.500   0.3286   0.00781   0.00280  -0.0074  0.5172  0.9715  -0.9325   0.0000   0.0000   0.0000   0.2693
   2.600   0.3445   0.00792   0.00284  -0.0084  0.4980  0.9730  -0.9659   0.0000   0.0000   0.0000   0.2712
   2.700   0.3603   0.00803   0.00288  -0.0094  0.4797  0.9746  -0.9992   0.0000   0.0000   0.0000   0.2729
   2.800   0.3758   0.00814   0.00292  -0.0104  0.4611  0.9764  -1.0325   0.0000   0.0000   0.0000   0.2743
   2.900   0.3908   0.00825   0.00296  -0.0113  0.4416  0.9784  -1.0679   0.0000   0.0000   0.0000   0.2754
   3.000   0.4054   0.00838   0.00303  -0.0121  0.4220  0.9805  -1.1283   0.0000   0.0000   0.0000   0.2763
   3.100   0.4197   0.00851   0.00308  -0.0128  0.4033  0.9828  -1.1872   0.0000   0.0000   0.0000   0.2769
   3.300   0.4473   0.00874   0.00320  -0.0140  0.3702  0.9874  -1.3047   0.0000   0.0000   0.0000   0.2777
   3.400   0.4602   0.00888   0.00328  -0.0144  0.3554  0.9895  -1.3624   0.0000   0.0000   0.0000   0.2777
   3.600   0.4920   0.00906   0.00335  -0.0166  0.3225  0.9921  -1.4940   0.0000   0.0000   0.0000   0.2800
   3.700   0.5076   0.00916   0.00339  -0.0176  0.3071  0.9937  -1.5603   0.0000   0.0000   0.0000   0.2809
   3.800   0.5229   0.00928   0.00343  -0.0186  0.2911  0.9953  -1.6263   0.0000   0.0000   0.0000   0.2818
   3.900   0.5381   0.00938   0.00347  -0.0196  0.2741  0.9970  -1.6934   0.0000   0.0000   0.0000   0.2825
   4.000   0.5532   0.00950   0.00353  -0.0205  0.2560  0.9985  -1.7606   0.0000   0.0000   0.0000   0.2832
   4.100   0.5682   0.00964   0.00358  -0.0215  0.2375  0.9998  -1.8283   0.0000   0.0000   0.0000   0.2838
   4.200   0.5766   0.00977   0.00363  -0.0211  0.2225  1.0000  -1.8794   0.0000   0.0000   0.0000   0.2825
   4.300   0.5845   0.00985   0.00368  -0.0205  0.2109  1.0000  -1.9294   0.0000   0.0000   0.0000   0.2809
   4.400   0.5920   0.00997   0.00373  -0.0199  0.1989  1.0000  -1.9785   0.0000   0.0000   0.0000   0.2794
   4.500   0.6000   0.01005   0.00382  -0.0193  0.1889  1.0000  -2.0289   0.0000   0.0000   0.0000   0.2779
   4.600   0.6075   0.01018   0.00389  -0.0187  0.1780  1.0000  -2.0789   0.0000   0.0000   0.0000   0.2764
   4.700   0.6157   0.01026   0.00396  -0.0181  0.1698  1.0000  -2.1380   0.0000   0.0000   0.0000   0.2750
   4.800   0.6235   0.01038   0.00403  -0.0175  0.1601  1.0000  -2.2007   0.0000   0.0000   0.0000   0.2736
   4.900   0.6314   0.01050   0.00411  -0.0170  0.1515  1.0000  -2.2732   0.0000   0.0000   0.0000   0.2723
   5.000   0.6395   0.01059   0.00419  -0.0164  0.1437  1.0000  -2.3512   0.0000   0.0000   0.0000   0.2710
   5.100   0.6473   0.01074   0.00428  -0.0158  0.1352  1.0000  -2.4283   0.0000   0.0000   0.0000   0.2697
   5.200   0.6554   0.01084   0.00438  -0.0153  0.1288  1.0000  -2.5080   0.0000   0.0000   0.0000   0.2685
   5.300   0.6636   0.01095   0.00447  -0.0147  0.1226  1.0000  -2.5889   0.0000   0.0000   0.0000   0.2673
   5.400   0.6715   0.01110   0.00457  -0.0141  0.1155  1.0000  -2.6689   0.0000   0.0000   0.0000   0.2660
   5.500   0.6794   0.01124   0.00469  -0.0135  0.1088  1.0000  -2.7495   0.0000   0.0000   0.0000   0.2648
   5.600   0.6879   0.01133   0.00479  -0.0130  0.1046  1.0000  -2.8341   0.0000   0.0000   0.0000   0.2638
   5.700   0.6960   0.01146   0.00490  -0.0124  0.0993  1.0000  -2.9179   0.0000   0.0000   0.0000   0.2627
   5.800   0.7038   0.01163   0.00503  -0.0118  0.0930  1.0000  -3.0005   0.0000   0.0000   0.0000   0.2615
   5.900   0.7117   0.01179   0.00518  -0.0112  0.0875  1.0000  -3.0832   0.0000   0.0000   0.0000   0.2604
   6.000   0.7204   0.01187   0.00529  -0.0107  0.0843  1.0000  -3.1719   0.0000   0.0000   0.0000   0.2594
   6.100   0.7287   0.01200   0.00541  -0.0102  0.0799  1.0000  -3.2591   0.0000   0.0000   0.0000   0.2584
   6.200   0.7365   0.01218   0.00555  -0.0096  0.0745  1.0000  -3.3445   0.0000   0.0000   0.0000   0.2574
   6.300   0.7436   0.01245   0.00578  -0.0089  0.0673  1.0000  -3.4227   0.0000   0.0000   0.0000   0.2562
   6.400   0.7524   0.01252   0.00589  -0.0084  0.0647  1.0000  -3.5152   0.0000   0.0000   0.0000   0.2553
   6.500   0.7606   0.01266   0.00603  -0.0078  0.0599  1.0000  -3.6033   0.0000   0.0000   0.0000   0.2544
   6.600   0.7675   0.01296   0.00629  -0.0071  0.0524  1.0000  -3.6840   0.0000   0.0000   0.0000   0.2532
   6.700   0.7745   0.01325   0.00658  -0.0063  0.0471  1.0000  -3.7589   0.0000   0.0000   0.0000   0.2520
   6.800   0.7829   0.01338   0.00673  -0.0058  0.0443  1.0000  -3.8490   0.0000   0.0000   0.0000   0.2512
   6.900   0.7908   0.01357   0.00692  -0.0051  0.0411  1.0000  -3.9353   0.0000   0.0000   0.0000   0.2502
   7.000   0.7981   0.01383   0.00715  -0.0044  0.0382  1.0000  -4.0169   0.0000   0.0000   0.0000   0.2492
   7.100   0.8044   0.01419   0.00752  -0.0035  0.0353  1.0000  -4.0850   0.0000   0.0000   0.0000   0.2479
   7.200   0.8090   0.01475   0.00814  -0.0023  0.0329  1.0000  -4.1470   0.0000   0.0000   0.0000   0.2463
   7.300   0.8142   0.01524   0.00869  -0.0012  0.0317  1.0000  -4.2206   0.0000   0.0000   0.0000   0.2448
   7.400   0.8223   0.01540   0.00888  -0.0006  0.0314  1.0000  -4.3280   0.0000   0.0000   0.0000   0.2440
   7.500   0.8304   0.01557   0.00908  -0.0000  0.0310  1.0000  -4.4367   0.0000   0.0000   0.0000   0.2432
   7.600   0.8384   0.01574   0.00928   0.0006  0.0305  1.0000  -4.5466   0.0000   0.0000   0.0000   0.2424
   7.700   0.8464   0.01591   0.00947   0.0012  0.0299  1.0000  -4.6575   0.0000   0.0000   0.0000   0.2416
   7.800   0.8544   0.01609   0.00967   0.0017  0.0291  1.0000  -4.7695   0.0000   0.0000   0.0000   0.2408
   7.900   0.8623   0.01626   0.00987   0.0023  0.0283  1.0000  -4.8828   0.0000   0.0000   0.0000   0.2401
   8.000   0.8702   0.01644   0.01007   0.0029  0.0274  1.0000  -4.9970   0.0000   0.0000   0.0000   0.2393
   8.100   0.8780   0.01663   0.01028   0.0035  0.0265  1.0000  -5.1110   0.0000   0.0000   0.0000   0.2386
   8.200   0.8856   0.01685   0.01052   0.0041  0.0257  1.0000  -5.2225   0.0000   0.0000   0.0000   0.2378
   8.300   0.8929   0.01708   0.01077   0.0048  0.0250  1.0000  -5.3333   0.0000   0.0000   0.0000   0.2370
   8.400   0.9001   0.01734   0.01105   0.0055  0.0242  1.0000  -5.4420   0.0000   0.0000   0.0000   0.2362
   8.500   0.9066   0.01766   0.01138   0.0062  0.0233  1.0000  -5.5443   0.0000   0.0000   0.0000   0.2352
   8.600   0.9121   0.01810   0.01185   0.0072  0.0224  1.0000  -5.6326   0.0000   0.0000   0.0000   0.2341
   8.700   0.9156   0.01879   0.01260   0.0084  0.0213  1.0000  -5.6933   0.0000   0.0000   0.0000   0.2327
   8.800   0.9158   0.01999   0.01393   0.0102  0.0202  1.0000  -5.7033   0.0000   0.0000   0.0000   0.2307
   8.900   0.9181   0.02101   0.01506   0.0116  0.0196  1.0000  -5.7383   0.0000   0.0000   0.0000   0.2291
   9.000   0.9260   0.02115   0.01523   0.0122  0.0194  1.0000  -5.8562   0.0000   0.0000   0.0000   0.2285
   9.100   0.9336   0.02134   0.01545   0.0128  0.0191  1.0000  -5.9700   0.0000   0.0000   0.0000   0.2278
   9.200   0.9408   0.02157   0.01576   0.0134  0.0187  1.0000  -6.0834   0.0000   0.0000   0.0000   0.2271
   9.300   0.9478   0.02182   0.01605   0.0141  0.0183  1.0000  -6.1926   0.0000   0.0000   0.0000   0.2264
   9.400   0.9546   0.02209   0.01635   0.0148  0.0178  1.0000  -6.2999   0.0000   0.0000   0.0000   0.2257
   9.500   0.9613   0.02237   0.01667   0.0155  0.0173  1.0000  -6.4071   0.0000   0.0000   0.0000   0.2249
   9.600   0.9678   0.02263   0.01696   0.0162  0.0167  1.0000  -6.5163   0.0000   0.0000   0.0000   0.2242
   9.700   0.9744   0.02287   0.01723   0.0168  0.0161  1.0000  -6.6297   0.0000   0.0000   0.0000   0.2235
   9.800   0.9810   0.02309   0.01746   0.0175  0.0156  1.0000  -6.7475   0.0000   0.0000   0.0000   0.2228
   9.900   0.9875   0.02329   0.01767   0.0182  0.0151  1.0000  -6.8688   0.0000   0.0000   0.0000   0.2221
  10.000   0.9938   0.02351   0.01790   0.0188  0.0146  1.0000  -6.9904   0.0000   0.0000   0.0000   0.2215
  10.100   0.9996   0.02378   0.01818   0.0196  0.0142  1.0000  -7.1077   0.0000   0.0000   0.0000   0.2207
  10.200   1.0045   0.02415   0.01857   0.0204  0.0138  1.0000  -7.2128   0.0000   0.0000   0.0000   0.2199
  10.300   1.0080   0.02469   0.01916   0.0214  0.0134  1.0000  -7.2952   0.0000   0.0000   0.0000   0.2188
  10.400   1.0097   0.02545   0.01998   0.0227  0.0131  1.0000  -7.3494   0.0000   0.0000   0.0000   0.2175
  10.500   1.0097   0.02643   0.02106   0.0241  0.0127  1.0000  -7.3761   0.0000   0.0000   0.0000   0.2159
  10.600   1.0076   0.02767   0.02241   0.0257  0.0125  1.0000  -7.3746   0.0000   0.0000   0.0000   0.2142
  10.700   1.0036   0.02912   0.02401   0.0275  0.0122  1.0000  -7.3470   0.0000   0.0000   0.0000   0.2122
  10.800   0.9977   0.03073   0.02579   0.0294  0.0120  1.0000  -7.2996   0.0000   0.0000   0.0000   0.2100
  10.900   0.9901   0.03231   0.02753   0.0315  0.0119  1.0000  -7.2443   0.0000   0.0000   0.0000   0.2075
  11.000   0.9889   0.03292   0.02819   0.0331  0.0118  1.0000  -7.2875   0.0000   0.0000   0.0000   0.2058
  11.100   0.9895   0.03331   0.02863   0.0344  0.0118  1.0000  -7.3554   0.0000   0.0000   0.0000   0.2043
  11.200   0.9898   0.03376   0.02913   0.0357  0.0117  1.0000  -7.4187   0.0000   0.0000   0.0000   0.2029
  11.300   0.9898   0.03425   0.02968   0.0370  0.0117  1.0000  -7.4775   0.0000   0.0000   0.0000   0.2015
  11.400   0.9895   0.03481   0.03029   0.0382  0.0116  1.0000  -7.5323   0.0000   0.0000   0.0000   0.2001
  11.500   0.9888   0.03542   0.03096   0.0393  0.0116  1.0000  -7.5824   0.0000   0.0000   0.0000   0.1988
  11.600   0.9877   0.03608   0.03169   0.0403  0.0115  1.0000  -7.6274   0.0000   0.0000   0.0000   0.1976
  11.700   0.9862   0.03681   0.03248   0.0413  0.0114  1.0000  -7.6675   0.0000   0.0000   0.0000   0.1964
  11.800   0.9842   0.03761   0.03334   0.0422  0.0114  1.0000  -7.7024   0.0000   0.0000   0.0000   0.1953
  11.900   0.9819   0.03847   0.03428   0.0429  0.0113  1.0000  -7.7321   0.0000   0.0000   0.0000   0.1943
  12.000   0.9791   0.03941   0.03529   0.0435  0.0113  1.0000  -7.7565   0.0000   0.0000   0.0000   0.1934
  12.100   0.9759   0.04044   0.03638   0.0440  0.0112  1.0000  -7.7755   0.0000   0.0000   0.0000   0.1926
  12.200   0.9724   0.04156   0.03757   0.0443  0.0112  1.0000  -7.7891   0.0000   0.0000   0.0000   0.1919
  12.300   0.9684   0.04278   0.03886   0.0445  0.0111  1.0000  -7.7972   0.0000   0.0000   0.0000   0.1914
  12.400   0.9640   0.04411   0.04026   0.0445  0.0111  1.0000  -7.7994   0.0000   0.0000   0.0000   0.1910
  12.500   0.9593   0.04555   0.04178   0.0443  0.0110  1.0000  -7.7957   0.0000   0.0000   0.0000   0.1908
  12.600   0.9542   0.04714   0.04343   0.0439  0.0110  1.0000  -7.7857   0.0000   0.0000   0.0000   0.1908
  12.700   0.9486   0.04888   0.04524   0.0432  0.0110  1.0000  -7.7689   0.0000   0.0000   0.0000   0.1910
  12.800   0.9427   0.05077   0.04720   0.0423  0.0110  1.0000  -7.7448   0.0000   0.0000   0.0000   0.1915
  12.900   0.9363   0.05283   0.04934   0.0412  0.0110  1.0000  -7.7126   0.0000   0.0000   0.0000   0.1921
  13.000   0.9294   0.05510   0.05168   0.0399  0.0110  1.0000  -7.6716   0.0000   0.0000   0.0000   0.1931
  13.100   0.9221   0.05757   0.05423   0.0383  0.0110  1.0000  -7.6212   0.0000   0.0000   0.0000   0.1942
  13.200   0.9141   0.06029   0.05702   0.0365  0.0110  1.0000  -7.5592   0.0000   0.0000   0.0000   0.1957
  13.300   0.9055   0.06324   0.06004   0.0344  0.0110  1.0000  -7.4847   0.0000   0.0000   0.0000   0.1974
  13.400   0.8959   0.06648   0.06335   0.0322  0.0111  1.0000  -7.3946   0.0000   0.0000   0.0000   0.1993
  13.500   0.8853   0.07003   0.06697   0.0297  0.0111  1.0000  -7.2864   0.0000   0.0000   0.0000   0.2015
  13.600   0.8734   0.07400   0.07101   0.0269  0.0112  1.0000  -7.1538   0.0000   0.0000   0.0000   0.2041
  13.700   0.8595   0.07847   0.07555   0.0239  0.0113  1.0000  -6.9879   0.0000   0.0000   0.0000   0.2070
  13.800   0.8422   0.08379   0.08094   0.0204  0.0114  1.0000  -6.7640   0.0000   0.0000   0.0000   0.2104
  13.900   0.8153   0.09119   0.08842   0.0158  0.0117  1.0000  -6.3880   0.0000   0.0000   0.0000   0.2152
  14.400   0.6705   0.14027   0.13763  -0.0067  0.0148  1.0000  -3.4540   0.0000   0.0000   0.0000   0.2464
  14.500   0.6634   0.14459   0.14194  -0.0083  0.0152  1.0000  -3.2408   0.0000   0.0000   0.0000   0.2491
  14.600   0.6596   0.14791   0.14524  -0.0096  0.0155  1.0000  -3.1046   0.0000   0.0000   0.0000   0.2511
  14.700   0.6570   0.15082   0.14814  -0.0107  0.0157  1.0000  -2.9967   0.0000   0.0000   0.0000   0.2528
  14.800   0.6551   0.15350   0.15082  -0.0117  0.0160  1.0000  -2.9044   0.0000   0.0000   0.0000   0.2543
  14.900   0.6538   0.15603   0.15335  -0.0126  0.0162  1.0000  -2.8218   0.0000   0.0000   0.0000   0.2557
  15.000   0.6529   0.15846   0.15577  -0.0135  0.0165  1.0000  -2.7461   0.0000   0.0000   0.0000   0.2570


