xflr5 v6.61

 Calculated polar for: SD8020-010-88

 1 1 Reynolds number fixed          Mach number fixed         

 xtrf =   1.000 (top)        1.000 (bottom)
 Mach =   0.000     Re =     0.325 e 6     Ncrit =   9.000

  alpha     CL        CD       CDp       Cm    Top Xtr Bot Xtr   Cpmin    Chinge    XCp    
 ------- -------- --------- --------- -------- ------- ------- -------- --------- ---------
 -10.000  -0.9569   0.03004   0.02468  -0.0238  1.0000  0.0185  -6.3150   0.0000   0.0000   0.0000   0.2157
  -9.900  -0.9518   0.02966   0.02424  -0.0230  1.0000  0.0189  -6.2293   0.0000   0.0000   0.0000   0.2166
  -9.800  -0.9464   0.02933   0.02385  -0.0221  1.0000  0.0192  -6.1399   0.0000   0.0000   0.0000   0.2174
  -9.700  -0.9405   0.02906   0.02352  -0.0214  1.0000  0.0194  -6.0463   0.0000   0.0000   0.0000   0.2182
  -9.600  -0.9342   0.02886   0.02326  -0.0206  1.0000  0.0196  -5.9482   0.0000   0.0000   0.0000   0.2189
  -9.500  -0.9364   0.02693   0.02113  -0.0190  1.0000  0.0201  -5.9875   0.0000   0.0000   0.0000   0.2208
  -9.400  -0.9384   0.02492   0.01892  -0.0173  1.0000  0.0208  -6.0308   0.0000   0.0000   0.0000   0.2227
  -9.300  -0.9369   0.02366   0.01754  -0.0160  1.0000  0.0216  -6.0132   0.0000   0.0000   0.0000   0.2242
  -9.200  -0.9333   0.02284   0.01666  -0.0149  1.0000  0.0223  -5.9561   0.0000   0.0000   0.0000   0.2255
  -9.100  -0.9284   0.02228   0.01601  -0.0139  1.0000  0.0230  -5.8748   0.0000   0.0000   0.0000   0.2265
  -9.000  -0.9226   0.02186   0.01556  -0.0131  1.0000  0.0237  -5.7818   0.0000   0.0000   0.0000   0.2274
  -8.900  -0.9163   0.02150   0.01517  -0.0124  1.0000  0.0244  -5.6835   0.0000   0.0000   0.0000   0.2282
  -8.800  -0.9098   0.02117   0.01481  -0.0116  1.0000  0.0251  -5.5839   0.0000   0.0000   0.0000   0.2290
  -8.700  -0.9031   0.02084   0.01445  -0.0109  1.0000  0.0259  -5.4847   0.0000   0.0000   0.0000   0.2298
  -8.600  -0.8963   0.02051   0.01408  -0.0102  1.0000  0.0267  -5.3863   0.0000   0.0000   0.0000   0.2307
  -8.500  -0.8894   0.02017   0.01371  -0.0095  1.0000  0.0276  -5.2884   0.0000   0.0000   0.0000   0.2315
  -8.400  -0.8823   0.01988   0.01338  -0.0088  1.0000  0.0284  -5.1873   0.0000   0.0000   0.0000   0.2323
  -8.300  -0.8747   0.01966   0.01313  -0.0082  1.0000  0.0294  -5.0787   0.0000   0.0000   0.0000   0.2330
  -8.200  -0.8667   0.01950   0.01293  -0.0076  1.0000  0.0302  -4.9658   0.0000   0.0000   0.0000   0.2337
  -8.100  -0.8585   0.01937   0.01278  -0.0071  1.0000  0.0309  -4.8502   0.0000   0.0000   0.0000   0.2343
  -8.000  -0.8500   0.01928   0.01266  -0.0066  1.0000  0.0315  -4.7335   0.0000   0.0000   0.0000   0.2349
  -7.900  -0.8415   0.01919   0.01254  -0.0061  1.0000  0.0318  -4.6176   0.0000   0.0000   0.0000   0.2355
  -7.800  -0.8384   0.01819   0.01146  -0.0048  1.0000  0.0330  -4.5742   0.0000   0.0000   0.0000   0.2372
  -7.700  -0.8344   0.01746   0.01065  -0.0035  1.0000  0.0343  -4.5157   0.0000   0.0000   0.0000   0.2387
  -7.600  -0.8292   0.01692   0.01008  -0.0025  1.0000  0.0356  -4.4418   0.0000   0.0000   0.0000   0.2401
  -7.500  -0.8232   0.01651   0.00964  -0.0015  1.0000  0.0370  -4.3570   0.0000   0.0000   0.0000   0.2413
  -7.400  -0.8164   0.01618   0.00931  -0.0007  1.0000  0.0384  -4.2647   0.0000   0.0000   0.0000   0.2423
  -7.300  -0.8093   0.01590   0.00901  -0.0000  1.0000  0.0398  -4.1687   0.0000   0.0000   0.0000   0.2433
  -7.200  -0.8019   0.01565   0.00875   0.0007  1.0000  0.0415  -4.0801   0.0000   0.0000   0.0000   0.2443
  -7.100  -0.7942   0.01543   0.00851   0.0013  1.0000  0.0435  -3.9969   0.0000   0.0000   0.0000   0.2452
  -7.000  -0.7862   0.01525   0.00830   0.0019  1.0000  0.0457  -3.9115   0.0000   0.0000   0.0000   0.2461
  -6.900  -0.7776   0.01513   0.00815   0.0024  1.0000  0.0476  -3.8220   0.0000   0.0000   0.0000   0.2469
  -6.800  -0.7724   0.01463   0.00763   0.0036  1.0000  0.0521  -3.7672   0.0000   0.0000   0.0000   0.2484
  -6.700  -0.7663   0.01423   0.00729   0.0045  1.0000  0.0585  -3.6987   0.0000   0.0000   0.0000   0.2497
  -6.600  -0.7584   0.01403   0.00706   0.0051  1.0000  0.0638  -3.6127   0.0000   0.0000   0.0000   0.2507
  -6.500  -0.7496   0.01395   0.00692   0.0055  1.0000  0.0672  -3.5228   0.0000   0.0000   0.0000   0.2515
  -6.400  -0.7437   0.01354   0.00656   0.0065  1.0000  0.0750  -3.4551   0.0000   0.0000   0.0000   0.2529
  -6.300  -0.7359   0.01333   0.00640   0.0071  1.0000  0.0807  -3.3710   0.0000   0.0000   0.0000   0.2539
  -6.200  -0.7275   0.01321   0.00626   0.0076  1.0000  0.0854  -3.2836   0.0000   0.0000   0.0000   0.2548
  -6.100  -0.7187   0.01313   0.00614   0.0081  1.0000  0.0884  -3.1943   0.0000   0.0000   0.0000   0.2557
  -6.000  -0.7119   0.01283   0.00589   0.0088  1.0000  0.0958  -3.1185   0.0000   0.0000   0.0000   0.2569
  -5.900  -0.7041   0.01265   0.00575   0.0094  1.0000  0.1016  -3.0351   0.0000   0.0000   0.0000   0.2580
  -5.800  -0.6957   0.01253   0.00562   0.0100  1.0000  0.1067  -2.9502   0.0000   0.0000   0.0000   0.2590
  -5.700  -0.6874   0.01242   0.00549   0.0105  1.0000  0.1112  -2.8661   0.0000   0.0000   0.0000   0.2601
  -5.600  -0.6800   0.01220   0.00532   0.0112  1.0000  0.1188  -2.7877   0.0000   0.0000   0.0000   0.2613
  -5.500  -0.6719   0.01205   0.00520   0.0117  1.0000  0.1255  -2.7062   0.0000   0.0000   0.0000   0.2624
  -5.400  -0.6635   0.01195   0.00509   0.0123  1.0000  0.1311  -2.6236   0.0000   0.0000   0.0000   0.2635
  -5.300  -0.6559   0.01176   0.00495   0.0129  1.0000  0.1393  -2.5462   0.0000   0.0000   0.0000   0.2647
  -5.200  -0.6480   0.01162   0.00484   0.0135  1.0000  0.1475  -2.4675   0.0000   0.0000   0.0000   0.2660
  -5.100  -0.6396   0.01152   0.00474   0.0140  1.0000  0.1550  -2.3878   0.0000   0.0000   0.0000   0.2671
  -5.000  -0.6322   0.01133   0.00463   0.0146  1.0000  0.1656  -2.3127   0.0000   0.0000   0.0000   0.2685
  -4.900  -0.6241   0.01122   0.00454   0.0152  1.0000  0.1755  -2.2352   0.0000   0.0000   0.0000   0.2697
  -4.800  -0.6165   0.01106   0.00444   0.0158  1.0000  0.1867  -2.1716   0.0000   0.0000   0.0000   0.2711
  -4.700  -0.6085   0.01095   0.00436   0.0164  1.0000  0.1979  -2.1085   0.0000   0.0000   0.0000   0.2725
  -4.600  -0.6010   0.01079   0.00427   0.0170  1.0000  0.2099  -2.0531   0.0000   0.0000   0.0000   0.2739
  -4.500  -0.5930   0.01070   0.00420   0.0176  1.0000  0.2223  -2.0022   0.0000   0.0000   0.0000   0.2753
  -4.400  -0.5856   0.01054   0.00410   0.0182  1.0000  0.2362  -1.9538   0.0000   0.0000   0.0000   0.2769
  -4.300  -0.5778   0.01043   0.00403   0.0188  1.0000  0.2494  -1.9042   0.0000   0.0000   0.0000   0.2784
  -4.200  -0.5703   0.01031   0.00397   0.0194  1.0000  0.2636  -1.8555   0.0000   0.0000   0.0000   0.2800
  -4.100  -0.5627   0.01020   0.00391   0.0200  1.0000  0.2764  -1.8072   0.0000   0.0000   0.0000   0.2816
  -4.000  -0.5550   0.01011   0.00386   0.0206  1.0000  0.2895  -1.7587   0.0000   0.0000   0.0000   0.2833
  -3.900  -0.5476   0.01000   0.00381   0.0213  1.0000  0.3019  -1.7115   0.0000   0.0000   0.0000   0.2850
  -3.800  -0.5397   0.00993   0.00377   0.0219  1.0000  0.3146  -1.6636   0.0000   0.0000   0.0000   0.2867
  -3.700  -0.5325   0.00982   0.00372   0.0226  1.0000  0.3275  -1.6176   0.0000   0.0000   0.0000   0.2886
  -3.600  -0.5249   0.00975   0.00369   0.0232  1.0000  0.3403  -1.5709   0.0000   0.0000   0.0000   0.2905
  -3.500  -0.5177   0.00966   0.00366   0.0238  1.0000  0.3539  -1.5256   0.0000   0.0000   0.0000   0.2925
  -3.400  -0.5061   0.00957   0.00363   0.0236  0.9992  0.3692  -1.4700   0.0000   0.0000   0.0000   0.2931
  -3.300  -0.4904   0.00949   0.00360   0.0225  0.9974  0.3873  -1.4046   0.0000   0.0000   0.0000   0.2925
  -3.200  -0.4748   0.00940   0.00358   0.0215  0.9954  0.4067  -1.3403   0.0000   0.0000   0.0000   0.2919
  -3.100  -0.4592   0.00930   0.00357   0.0205  0.9933  0.4274  -1.2768   0.0000   0.0000   0.0000   0.2912
  -3.000  -0.4433   0.00921   0.00357   0.0194  0.9914  0.4490  -1.2134   0.0000   0.0000   0.0000   0.2904
  -2.900  -0.4270   0.00913   0.00357   0.0182  0.9897  0.4705  -1.1495   0.0000   0.0000   0.0000   0.2893
  -2.800  -0.4135   0.00900   0.00349   0.0176  0.9874  0.4895  -1.0913   0.0000   0.0000   0.0000   0.2895
  -2.700  -0.3995   0.00889   0.00345   0.0170  0.9847  0.5078  -1.0489   0.0000   0.0000   0.0000   0.2894
  -2.600  -0.3850   0.00879   0.00341   0.0163  0.9820  0.5272  -1.0168   0.0000   0.0000   0.0000   0.2892
  -2.500  -0.3701   0.00868   0.00338   0.0155  0.9792  0.5480  -0.9844   0.0000   0.0000   0.0000   0.2887
  -2.400  -0.3548   0.00857   0.00336   0.0146  0.9768  0.5685  -0.9518   0.0000   0.0000   0.0000   0.2881
  -2.300  -0.3390   0.00847   0.00334   0.0136  0.9745  0.5880  -0.9187   0.0000   0.0000   0.0000   0.2872
  -2.200  -0.3226   0.00837   0.00332   0.0126  0.9726  0.6065  -0.8852   0.0000   0.0000   0.0000   0.2859
  -2.100  -0.3059   0.00828   0.00330   0.0114  0.9709  0.6252  -0.8514   0.0000   0.0000   0.0000   0.2843
  -2.000  -0.2888   0.00821   0.00329   0.0102  0.9695  0.6442  -0.8175   0.0000   0.0000   0.0000   0.2823
  -1.900  -0.2799   0.00808   0.00323   0.0108  0.9646  0.6597  -0.7939   0.0000   0.0000   0.0000   0.2857
  -1.800  -0.2671   0.00798   0.00319   0.0105  0.9609  0.6752  -0.7655   0.0000   0.0000   0.0000   0.2866
  -1.700  -0.2527   0.00789   0.00315   0.0099  0.9577  0.6912  -0.7356   0.0000   0.0000   0.0000   0.2866
  -1.600  -0.2376   0.00780   0.00311   0.0092  0.9551  0.7071  -0.7049   0.0000   0.0000   0.0000   0.2861
  -1.500  -0.2218   0.00771   0.00308   0.0084  0.9528  0.7223  -0.6782   0.0000   0.0000   0.0000   0.2850
  -1.400  -0.2053   0.00763   0.00304   0.0074  0.9507  0.7373  -0.6518   0.0000   0.0000   0.0000   0.2832
  -1.300  -0.1885   0.00754   0.00302   0.0063  0.9490  0.7512  -0.6253   0.0000   0.0000   0.0000   0.2809
  -1.200  -0.1712   0.00746   0.00298   0.0052  0.9475  0.7645  -0.5985   0.0000   0.0000   0.0000   0.2775
  -1.100  -0.1611   0.00739   0.00295   0.0056  0.9422  0.7772  -0.5788   0.0000   0.0000   0.0000   0.2821
  -1.000  -0.1482   0.00731   0.00292   0.0054  0.9378  0.7891  -0.5566   0.0000   0.0000   0.0000   0.2840
  -0.900  -0.1338   0.00723   0.00288   0.0050  0.9341  0.8013  -0.5367   0.0000   0.0000   0.0000   0.2844
  -0.800  -0.1185   0.00716   0.00284   0.0043  0.9307  0.8125  -0.5160   0.0000   0.0000   0.0000   0.2834
  -0.700  -0.1023   0.00709   0.00281   0.0034  0.9277  0.8238  -0.4949   0.0000   0.0000   0.0000   0.2809
  -0.600  -0.0853   0.00703   0.00277   0.0024  0.9248  0.8341  -0.4732   0.0000   0.0000   0.0000   0.2755
  -0.500  -0.0738   0.00699   0.00277   0.0026  0.9183  0.8447  -0.4574   0.0000   0.0000   0.0000   0.2824
  -0.400  -0.0611   0.00695   0.00274   0.0025  0.9121  0.8551  -0.4417   0.0000   0.0000   0.0000   0.2879
  -0.300  -0.0447   0.00691   0.00273   0.0016  0.9072  0.8635  -0.4235   0.0000   0.0000   0.0000   0.2839
  -0.200  -0.0283   0.00687   0.00270   0.0008  0.9024  0.8725  -0.4054   0.0000   0.0000   0.0000   0.2750
  -0.100  -0.0151   0.00686   0.00270   0.0006  0.8952  0.8808  -0.3896   0.0000   0.0000   0.0000   0.2859
   0.000   0.0000   0.00686   0.00272  -0.0000  0.8879  0.8879  -0.3743   0.0000   0.0000   0.0000   0.4296
   0.100   0.0152   0.00686   0.00270  -0.0006  0.8808  0.8952  -0.3895   0.0000   0.0000   0.0000   0.2866
   0.200   0.0284   0.00687   0.00270  -0.0008  0.8725  0.9024  -0.4053   0.0000   0.0000   0.0000   0.2754
   0.300   0.0448   0.00691   0.00273  -0.0016  0.8635  0.9073  -0.4233   0.0000   0.0000   0.0000   0.2841
   0.400   0.0611   0.00695   0.00274  -0.0025  0.8550  0.9121  -0.4416   0.0000   0.0000   0.0000   0.2881
   0.500   0.0738   0.00699   0.00277  -0.0026  0.8446  0.9184  -0.4572   0.0000   0.0000   0.0000   0.2825
   0.600   0.0853   0.00703   0.00277  -0.0024  0.8341  0.9248  -0.4735   0.0000   0.0000   0.0000   0.2757
   0.700   0.1024   0.00709   0.00281  -0.0034  0.8237  0.9277  -0.4952   0.0000   0.0000   0.0000   0.2811
   0.800   0.1185   0.00716   0.00285  -0.0043  0.8125  0.9307  -0.5164   0.0000   0.0000   0.0000   0.2835
   0.900   0.1339   0.00723   0.00288  -0.0050  0.8013  0.9341  -0.5371   0.0000   0.0000   0.0000   0.2845
   1.000   0.1483   0.00731   0.00292  -0.0054  0.7891  0.9379  -0.5570   0.0000   0.0000   0.0000   0.2841
   1.100   0.1611   0.00739   0.00295  -0.0056  0.7773  0.9423  -0.5784   0.0000   0.0000   0.0000   0.2821
   1.200   0.1713   0.00746   0.00298  -0.0052  0.7647  0.9475  -0.5982   0.0000   0.0000   0.0000   0.2776
   1.300   0.1886   0.00754   0.00302  -0.0064  0.7514  0.9491  -0.6250   0.0000   0.0000   0.0000   0.2810
   1.400   0.2054   0.00763   0.00304  -0.0074  0.7374  0.9508  -0.6515   0.0000   0.0000   0.0000   0.2833
   1.500   0.2219   0.00771   0.00308  -0.0084  0.7225  0.9528  -0.6779   0.0000   0.0000   0.0000   0.2851
   1.600   0.2377   0.00780   0.00311  -0.0093  0.7074  0.9551  -0.7046   0.0000   0.0000   0.0000   0.2862
   1.700   0.2528   0.00789   0.00315  -0.0100  0.6914  0.9578  -0.7353   0.0000   0.0000   0.0000   0.2867
   1.800   0.2672   0.00798   0.00319  -0.0106  0.6752  0.9610  -0.7652   0.0000   0.0000   0.0000   0.2867
   1.900   0.2800   0.00808   0.00323  -0.0108  0.6596  0.9647  -0.7935   0.0000   0.0000   0.0000   0.2857
   2.000   0.2890   0.00821   0.00329  -0.0102  0.6440  0.9695  -0.8173   0.0000   0.0000   0.0000   0.2825
   2.100   0.3061   0.00829   0.00330  -0.0115  0.6249  0.9710  -0.8513   0.0000   0.0000   0.0000   0.2844
   2.200   0.3229   0.00837   0.00332  -0.0126  0.6063  0.9726  -0.8850   0.0000   0.0000   0.0000   0.2860
   2.300   0.3392   0.00846   0.00334  -0.0137  0.5881  0.9746  -0.9185   0.0000   0.0000   0.0000   0.2873
   2.400   0.3550   0.00857   0.00336  -0.0146  0.5688  0.9768  -0.9515   0.0000   0.0000   0.0000   0.2882
   2.500   0.3701   0.00868   0.00338  -0.0155  0.5484  0.9793  -0.9840   0.0000   0.0000   0.0000   0.2888
   2.600   0.3849   0.00878   0.00341  -0.0163  0.5277  0.9819  -1.0163   0.0000   0.0000   0.0000   0.2892
   2.700   0.3994   0.00888   0.00345  -0.0170  0.5082  0.9847  -1.0483   0.0000   0.0000   0.0000   0.2894
   2.800   0.4133   0.00899   0.00349  -0.0176  0.4899  0.9873  -1.0905   0.0000   0.0000   0.0000   0.2894
   2.900   0.4268   0.00912   0.00357  -0.0181  0.4710  0.9897  -1.1485   0.0000   0.0000   0.0000   0.2892
   3.000   0.4431   0.00921   0.00357  -0.0193  0.4494  0.9913  -1.2123   0.0000   0.0000   0.0000   0.2903
   3.100   0.4590   0.00930   0.00357  -0.0204  0.4277  0.9933  -1.2759   0.0000   0.0000   0.0000   0.2911
   3.200   0.4747   0.00940   0.00358  -0.0215  0.4068  0.9954  -1.3397   0.0000   0.0000   0.0000   0.2919
   3.300   0.4904   0.00949   0.00360  -0.0226  0.3872  0.9974  -1.4042   0.0000   0.0000   0.0000   0.2925
   3.400   0.5062   0.00957   0.00362  -0.0236  0.3691  0.9992  -1.4697   0.0000   0.0000   0.0000   0.2932
   3.500   0.5176   0.00966   0.00365  -0.0238  0.3539  1.0000  -1.5250   0.0000   0.0000   0.0000   0.2924
   3.600   0.5248   0.00975   0.00369  -0.0232  0.3404  1.0000  -1.5702   0.0000   0.0000   0.0000   0.2905
   3.700   0.5324   0.00982   0.00372  -0.0225  0.3276  1.0000  -1.6169   0.0000   0.0000   0.0000   0.2886
   3.800   0.5397   0.00993   0.00376  -0.0219  0.3147  1.0000  -1.6629   0.0000   0.0000   0.0000   0.2867
   3.900   0.5475   0.00999   0.00381  -0.0213  0.3020  1.0000  -1.7108   0.0000   0.0000   0.0000   0.2850
   4.000   0.5549   0.01011   0.00386  -0.0206  0.2895  1.0000  -1.7580   0.0000   0.0000   0.0000   0.2833
   4.100   0.5627   0.01019   0.00391  -0.0200  0.2763  1.0000  -1.8064   0.0000   0.0000   0.0000   0.2816
   4.200   0.5702   0.01031   0.00397  -0.0194  0.2635  1.0000  -1.8548   0.0000   0.0000   0.0000   0.2800
   4.300   0.5778   0.01043   0.00403  -0.0188  0.2495  1.0000  -1.9035   0.0000   0.0000   0.0000   0.2784
   4.400   0.5856   0.01054   0.00409  -0.0182  0.2363  1.0000  -1.9531   0.0000   0.0000   0.0000   0.2768
   4.500   0.5929   0.01069   0.00420  -0.0175  0.2225  1.0000  -2.0014   0.0000   0.0000   0.0000   0.2753
   4.600   0.6010   0.01079   0.00427  -0.0170  0.2103  1.0000  -2.0524   0.0000   0.0000   0.0000   0.2739
   4.700   0.6085   0.01094   0.00436  -0.0164  0.1983  1.0000  -2.1059   0.0000   0.0000   0.0000   0.2724
   4.800   0.6165   0.01105   0.00444  -0.0158  0.1872  1.0000  -2.1691   0.0000   0.0000   0.0000   0.2711
   4.900   0.6240   0.01122   0.00454  -0.0152  0.1758  1.0000  -2.2332   0.0000   0.0000   0.0000   0.2697
   5.000   0.6322   0.01133   0.00463  -0.0146  0.1659  1.0000  -2.3107   0.0000   0.0000   0.0000   0.2685
   5.100   0.6396   0.01151   0.00474  -0.0140  0.1552  1.0000  -2.3859   0.0000   0.0000   0.0000   0.2671
   5.200   0.6479   0.01162   0.00484  -0.0135  0.1476  1.0000  -2.4654   0.0000   0.0000   0.0000   0.2659
   5.300   0.6559   0.01176   0.00495  -0.0129  0.1394  1.0000  -2.5442   0.0000   0.0000   0.0000   0.2647
   5.400   0.6634   0.01195   0.00509  -0.0122  0.1312  1.0000  -2.6215   0.0000   0.0000   0.0000   0.2635
   5.500   0.6719   0.01205   0.00520  -0.0117  0.1256  1.0000  -2.7041   0.0000   0.0000   0.0000   0.2624
   5.600   0.6799   0.01219   0.00532  -0.0112  0.1188  1.0000  -2.7855   0.0000   0.0000   0.0000   0.2613
   5.700   0.6873   0.01241   0.00549  -0.0105  0.1112  1.0000  -2.8639   0.0000   0.0000   0.0000   0.2600
   5.800   0.6957   0.01253   0.00562  -0.0100  0.1067  1.0000  -2.9479   0.0000   0.0000   0.0000   0.2590
   5.900   0.7040   0.01265   0.00575  -0.0094  0.1015  1.0000  -3.0328   0.0000   0.0000   0.0000   0.2580
   6.000   0.7119   0.01283   0.00589  -0.0088  0.0956  1.0000  -3.1160   0.0000   0.0000   0.0000   0.2569
   6.100   0.7186   0.01313   0.00614  -0.0081  0.0882  1.0000  -3.1914   0.0000   0.0000   0.0000   0.2556
   6.200   0.7275   0.01321   0.00626  -0.0076  0.0852  1.0000  -3.2810   0.0000   0.0000   0.0000   0.2548
   6.300   0.7359   0.01334   0.00640  -0.0071  0.0806  1.0000  -3.3683   0.0000   0.0000   0.0000   0.2539
   6.400   0.7436   0.01355   0.00657  -0.0065  0.0748  1.0000  -3.4522   0.0000   0.0000   0.0000   0.2528
   6.500   0.7495   0.01395   0.00693  -0.0055  0.0671  1.0000  -3.5199   0.0000   0.0000   0.0000   0.2514
   6.600   0.7583   0.01404   0.00706  -0.0050  0.0638  1.0000  -3.6097   0.0000   0.0000   0.0000   0.2506
   6.700   0.7663   0.01423   0.00730  -0.0044  0.0587  1.0000  -3.6960   0.0000   0.0000   0.0000   0.2497
   6.800   0.7726   0.01460   0.00761  -0.0036  0.0527  1.0000  -3.7671   0.0000   0.0000   0.0000   0.2484
   6.900   0.7774   0.01516   0.00818  -0.0024  0.0477  1.0000  -3.8177   0.0000   0.0000   0.0000   0.2468
   7.000   0.7860   0.01527   0.00832  -0.0019  0.0460  1.0000  -3.9079   0.0000   0.0000   0.0000   0.2460
   7.100   0.7941   0.01545   0.00852  -0.0013  0.0438  1.0000  -3.9937   0.0000   0.0000   0.0000   0.2452
   7.200   0.8018   0.01566   0.00876  -0.0007  0.0417  1.0000  -4.0773   0.0000   0.0000   0.0000   0.2443
   7.300   0.8093   0.01591   0.00902   0.0000  0.0401  1.0000  -4.1675   0.0000   0.0000   0.0000   0.2433
   7.400   0.8164   0.01618   0.00931   0.0007  0.0386  1.0000  -4.2640   0.0000   0.0000   0.0000   0.2423
   7.500   0.8232   0.01650   0.00964   0.0015  0.0372  1.0000  -4.3573   0.0000   0.0000   0.0000   0.2413
   7.600   0.8294   0.01690   0.01005   0.0024  0.0358  1.0000  -4.4436   0.0000   0.0000   0.0000   0.2401
   7.700   0.8348   0.01741   0.01060   0.0035  0.0345  1.0000  -4.5196   0.0000   0.0000   0.0000   0.2388
   7.800   0.8389   0.01812   0.01137   0.0047  0.0332  1.0000  -4.5809   0.0000   0.0000   0.0000   0.2373
   7.900   0.8413   0.01922   0.01259   0.0061  0.0319  1.0000  -4.6154   0.0000   0.0000   0.0000   0.2355
   8.000   0.8498   0.01932   0.01271   0.0066  0.0315  1.0000  -4.7302   0.0000   0.0000   0.0000   0.2349
   8.100   0.8583   0.01941   0.01282   0.0071  0.0310  1.0000  -4.8476   0.0000   0.0000   0.0000   0.2343
   8.200   0.8666   0.01952   0.01296   0.0076  0.0303  1.0000  -4.9639   0.0000   0.0000   0.0000   0.2337
   8.300   0.8746   0.01968   0.01315   0.0082  0.0295  1.0000  -5.0775   0.0000   0.0000   0.0000   0.2330
   8.400   0.8822   0.01989   0.01339   0.0088  0.0285  1.0000  -5.1866   0.0000   0.0000   0.0000   0.2323
   8.500   0.8894   0.02018   0.01372   0.0095  0.0277  1.0000  -5.2882   0.0000   0.0000   0.0000   0.2315
   8.600   0.8963   0.02051   0.01409   0.0102  0.0268  1.0000  -5.3861   0.0000   0.0000   0.0000   0.2307
   8.700   0.9031   0.02085   0.01446   0.0109  0.0260  1.0000  -5.4845   0.0000   0.0000   0.0000   0.2299
   8.800   0.9098   0.02117   0.01482   0.0116  0.0252  1.0000  -5.5837   0.0000   0.0000   0.0000   0.2290
   8.900   0.9164   0.02151   0.01518   0.0123  0.0245  1.0000  -5.6835   0.0000   0.0000   0.0000   0.2282
   9.000   0.9227   0.02186   0.01556   0.0131  0.0238  1.0000  -5.7823   0.0000   0.0000   0.0000   0.2274
   9.100   0.9286   0.02226   0.01599   0.0139  0.0231  1.0000  -5.8765   0.0000   0.0000   0.0000   0.2265
   9.200   0.9337   0.02280   0.01662   0.0148  0.0224  1.0000  -5.9602   0.0000   0.0000   0.0000   0.2255
   9.300   0.9374   0.02358   0.01746   0.0159  0.0216  1.0000  -6.0204   0.0000   0.0000   0.0000   0.2243
   9.400   0.9391   0.02480   0.01879   0.0172  0.0209  1.0000  -6.0422   0.0000   0.0000   0.0000   0.2229
   9.500   0.9374   0.02674   0.02092   0.0189  0.0201  1.0000  -6.0040   0.0000   0.0000   0.0000   0.2210
   9.600   0.9343   0.02888   0.02328   0.0206  0.0197  1.0000  -5.9485   0.0000   0.0000   0.0000   0.2190
   9.700   0.9406   0.02906   0.02352   0.0213  0.0195  1.0000  -6.0482   0.0000   0.0000   0.0000   0.2182
   9.800   0.9466   0.02931   0.02382   0.0221  0.0192  1.0000  -6.1432   0.0000   0.0000   0.0000   0.2174
   9.900   0.9522   0.02963   0.02420   0.0229  0.0189  1.0000  -6.2337   0.0000   0.0000   0.0000   0.2166
  10.000   0.9573   0.03000   0.02463   0.0237  0.0186  1.0000  -6.3205   0.0000   0.0000   0.0000   0.2158
  10.100   0.9620   0.03041   0.02510   0.0246  0.0182  1.0000  -6.4048   0.0000   0.0000   0.0000   0.2149
  10.200   0.9664   0.03084   0.02558   0.0255  0.0178  1.0000  -6.4878   0.0000   0.0000   0.0000   0.2140
  10.300   0.9705   0.03128   0.02608   0.0263  0.0173  1.0000  -6.5707   0.0000   0.0000   0.0000   0.2131
  10.400   0.9743   0.03171   0.02656   0.0272  0.0169  1.0000  -6.6540   0.0000   0.0000   0.0000   0.2121
  10.500   0.9779   0.03215   0.02705   0.0281  0.0165  1.0000  -6.7375   0.0000   0.0000   0.0000   0.2112
  10.600   0.9812   0.03259   0.02753   0.0291  0.0161  1.0000  -6.8204   0.0000   0.0000   0.0000   0.2102
  10.700   0.9839   0.03306   0.02805   0.0300  0.0158  1.0000  -6.8983   0.0000   0.0000   0.0000   0.2092
  10.800   0.9858   0.03360   0.02865   0.0311  0.0155  1.0000  -6.9670   0.0000   0.0000   0.0000   0.2080
  10.900   0.9863   0.03421   0.02932   0.0323  0.0153  1.0000  -7.0222   0.0000   0.0000   0.0000   0.2067
  11.000   0.9850   0.03487   0.03004   0.0338  0.0151  1.0000  -7.0611   0.0000   0.0000   0.0000   0.2050
  11.100   0.9831   0.03553   0.03077   0.0353  0.0150  1.0000  -7.0955   0.0000   0.0000   0.0000   0.2033
  11.200   0.9810   0.03623   0.03153   0.0368  0.0149  1.0000  -7.1280   0.0000   0.0000   0.0000   0.2016
  11.300   0.9786   0.03696   0.03232   0.0382  0.0148  1.0000  -7.1586   0.0000   0.0000   0.0000   0.1999
  11.400   0.9761   0.03772   0.03315   0.0394  0.0147  1.0000  -7.1872   0.0000   0.0000   0.0000   0.1984
  11.500   0.9733   0.03853   0.03403   0.0406  0.0146  1.0000  -7.2131   0.0000   0.0000   0.0000   0.1970
  11.600   0.9702   0.03939   0.03496   0.0416  0.0145  1.0000  -7.2361   0.0000   0.0000   0.0000   0.1957
  11.700   0.9668   0.04031   0.03594   0.0424  0.0144  1.0000  -7.2556   0.0000   0.0000   0.0000   0.1945
  11.800   0.9632   0.04130   0.03699   0.0432  0.0143  1.0000  -7.2712   0.0000   0.0000   0.0000   0.1934
  11.900   0.9591   0.04236   0.03812   0.0438  0.0142  1.0000  -7.2824   0.0000   0.0000   0.0000   0.1924
  12.000   0.9547   0.04350   0.03933   0.0442  0.0141  1.0000  -7.2887   0.0000   0.0000   0.0000   0.1916
  12.100   0.9499   0.04476   0.04065   0.0444  0.0141  1.0000  -7.2898   0.0000   0.0000   0.0000   0.1910
  12.200   0.9447   0.04612   0.04209   0.0444  0.0140  1.0000  -7.2844   0.0000   0.0000   0.0000   0.1905
  12.300   0.9390   0.04761   0.04365   0.0443  0.0140  1.0000  -7.2720   0.0000   0.0000   0.0000   0.1902
  12.400   0.9329   0.04927   0.04538   0.0439  0.0140  1.0000  -7.2519   0.0000   0.0000   0.0000   0.1901
  12.500   0.9262   0.05110   0.04729   0.0432  0.0140  1.0000  -7.2224   0.0000   0.0000   0.0000   0.1903
  12.600   0.9188   0.05314   0.04941   0.0423  0.0140  1.0000  -7.1813   0.0000   0.0000   0.0000   0.1908
  12.700   0.9105   0.05545   0.05180   0.0410  0.0140  1.0000  -7.1263   0.0000   0.0000   0.0000   0.1915
  12.800   0.9012   0.05809   0.05453   0.0394  0.0141  1.0000  -7.0532   0.0000   0.0000   0.0000   0.1927
  12.900   0.8904   0.06118   0.05771   0.0373  0.0142  1.0000  -6.9556   0.0000   0.0000   0.0000   0.1942
  13.000   0.8774   0.06485   0.06149   0.0347  0.0143  1.0000  -6.8237   0.0000   0.0000   0.0000   0.1964
  13.100   0.8614   0.06936   0.06611   0.0315  0.0145  1.0000  -6.6436   0.0000   0.0000   0.0000   0.1993
  13.200   0.8413   0.07507   0.07193   0.0273  0.0148  1.0000  -6.3957   0.0000   0.0000   0.0000   0.2032
  13.300   0.8086   0.08410   0.08110   0.0209  0.0155  1.0000  -5.9512   0.0000   0.0000   0.0000   0.2098
  13.500   0.6457   0.13272   0.12972  -0.0027  0.0253  1.0000  -2.8875   0.0000   0.0000   0.0000   0.2419
  13.600   0.6409   0.13617   0.13316  -0.0039  0.0266  1.0000  -2.7608   0.0000   0.0000   0.0000   0.2439
  13.700   0.6386   0.13883   0.13580  -0.0049  0.0274  1.0000  -2.6896   0.0000   0.0000   0.0000   0.2454
  13.800   0.6373   0.14119   0.13816  -0.0057  0.0280  1.0000  -2.6385   0.0000   0.0000   0.0000   0.2467
  13.900   0.6365   0.14341   0.14037  -0.0065  0.0285  1.0000  -2.5975   0.0000   0.0000   0.0000   0.2478
  14.000   0.6361   0.14556   0.14252  -0.0072  0.0289  1.0000  -2.5613   0.0000   0.0000   0.0000   0.2489
  14.100   0.6356   0.14770   0.14465  -0.0079  0.0293  1.0000  -2.5272   0.0000   0.0000   0.0000   0.2500
  14.200   0.6288   0.15212   0.14907  -0.0076  0.0317  1.0000  -2.4358   0.0000   0.0000   0.0000   0.2496
  14.300   0.6295   0.15407   0.15102  -0.0084  0.0317  1.0000  -2.4112   0.0000   0.0000   0.0000   0.2508
  14.400   0.6303   0.15601   0.15295  -0.0091  0.0317  1.0000  -2.3868   0.0000   0.0000   0.0000   0.2519
  14.500   0.6312   0.15795   0.15489  -0.0099  0.0317  1.0000  -2.3626   0.0000   0.0000   0.0000   0.2529
  14.600   0.6322   0.15986   0.15680  -0.0106  0.0317  1.0000  -2.3387   0.0000   0.0000   0.0000   0.2540
  14.700   0.6332   0.16175   0.15868  -0.0114  0.0316  1.0000  -2.3148   0.0000   0.0000   0.0000   0.2551
  14.800   0.6344   0.16361   0.16054  -0.0121  0.0316  1.0000  -2.2909   0.0000   0.0000   0.0000   0.2562
  14.900   0.6357   0.16544   0.16237  -0.0128  0.0316  1.0000  -2.2671   0.0000   0.0000   0.0000   0.2572
  15.000   0.6370   0.16724   0.16416  -0.0136  0.0315  1.0000  -2.2433   0.0000   0.0000   0.0000   0.2583


