xflr5 v6.61

 Calculated polar for: SD8020-010-88

 1 1 Reynolds number fixed          Mach number fixed         

 xtrf =   1.000 (top)        1.000 (bottom)
 Mach =   0.000     Re =     0.450 e 6     Ncrit =   9.000

  alpha     CL        CD       CDp       Cm    Top Xtr Bot Xtr   Cpmin    Chinge    XCp    
 ------- -------- --------- --------- -------- ------- ------- -------- --------- ---------
 -10.000  -0.9996   0.02263   0.01699  -0.0179  1.0000  0.0140  -7.1058   0.0000   0.0000   0.0000   0.2225
  -9.900  -0.9939   0.02233   0.01668  -0.0171  1.0000  0.0144  -6.9913   0.0000   0.0000   0.0000   0.2233
  -9.800  -0.9875   0.02211   0.01645  -0.0165  1.0000  0.0149  -6.8681   0.0000   0.0000   0.0000   0.2240
  -9.700  -0.9807   0.02191   0.01624  -0.0158  1.0000  0.0154  -6.7436   0.0000   0.0000   0.0000   0.2246
  -9.600  -0.9738   0.02171   0.01604  -0.0152  1.0000  0.0159  -6.6214   0.0000   0.0000   0.0000   0.2253
  -9.500  -0.9670   0.02150   0.01580  -0.0146  1.0000  0.0165  -6.5035   0.0000   0.0000   0.0000   0.2260
  -9.400  -0.9601   0.02126   0.01553  -0.0139  1.0000  0.0171  -6.3898   0.0000   0.0000   0.0000   0.2267
  -9.300  -0.9532   0.02100   0.01525  -0.0132  1.0000  0.0176  -6.2788   0.0000   0.0000   0.0000   0.2274
  -9.200  -0.9463   0.02075   0.01496  -0.0125  1.0000  0.0181  -6.1682   0.0000   0.0000   0.0000   0.2281
  -9.100  -0.9392   0.02050   0.01468  -0.0119  1.0000  0.0186  -6.0563   0.0000   0.0000   0.0000   0.2288
  -9.000  -0.9318   0.02028   0.01438  -0.0112  1.0000  0.0190  -5.9418   0.0000   0.0000   0.0000   0.2295
  -8.900  -0.9242   0.02009   0.01416  -0.0106  1.0000  0.0193  -5.8267   0.0000   0.0000   0.0000   0.2302
  -8.800  -0.9163   0.01994   0.01398  -0.0101  1.0000  0.0195  -5.7083   0.0000   0.0000   0.0000   0.2308
  -8.700  -0.9092   0.01966   0.01367  -0.0094  1.0000  0.0198  -5.6029   0.0000   0.0000   0.0000   0.2316
  -8.600  -0.9107   0.01825   0.01210  -0.0074  1.0000  0.0210  -5.6142   0.0000   0.0000   0.0000   0.2339
  -8.500  -0.9077   0.01750   0.01127  -0.0060  1.0000  0.0221  -5.5622   0.0000   0.0000   0.0000   0.2355
  -8.400  -0.9025   0.01703   0.01076  -0.0050  1.0000  0.0231  -5.4783   0.0000   0.0000   0.0000   0.2367
  -8.300  -0.8961   0.01669   0.01041  -0.0041  1.0000  0.0240  -5.3784   0.0000   0.0000   0.0000   0.2377
  -8.200  -0.8891   0.01642   0.01012  -0.0034  1.0000  0.0248  -5.2710   0.0000   0.0000   0.0000   0.2386
  -8.100  -0.8817   0.01619   0.00988  -0.0028  1.0000  0.0255  -5.1601   0.0000   0.0000   0.0000   0.2394
  -8.000  -0.8740   0.01599   0.00966  -0.0022  1.0000  0.0263  -5.0464   0.0000   0.0000   0.0000   0.2402
  -7.900  -0.8662   0.01581   0.00946  -0.0016  1.0000  0.0271  -4.9313   0.0000   0.0000   0.0000   0.2409
  -7.800  -0.8583   0.01564   0.00927  -0.0010  1.0000  0.0280  -4.8170   0.0000   0.0000   0.0000   0.2417
  -7.700  -0.8503   0.01546   0.00907  -0.0004  1.0000  0.0288  -4.7039   0.0000   0.0000   0.0000   0.2425
  -7.600  -0.8424   0.01529   0.00887   0.0002  1.0000  0.0296  -4.5925   0.0000   0.0000   0.0000   0.2433
  -7.500  -0.8344   0.01511   0.00867   0.0008  1.0000  0.0303  -4.4826   0.0000   0.0000   0.0000   0.2441
  -7.400  -0.8264   0.01494   0.00847   0.0014  1.0000  0.0308  -4.3738   0.0000   0.0000   0.0000   0.2449
  -7.300  -0.8184   0.01476   0.00827   0.0020  1.0000  0.0313  -4.2660   0.0000   0.0000   0.0000   0.2457
  -7.200  -0.8103   0.01460   0.00808   0.0026  1.0000  0.0316  -4.1590   0.0000   0.0000   0.0000   0.2466
  -7.100  -0.8035   0.01430   0.00774   0.0034  1.0000  0.0324  -4.0671   0.0000   0.0000   0.0000   0.2477
  -7.000  -0.7991   0.01372   0.00708   0.0047  1.0000  0.0353  -4.0224   0.0000   0.0000   0.0000   0.2495
  -6.900  -0.7926   0.01336   0.00674   0.0056  1.0000  0.0389  -3.9534   0.0000   0.0000   0.0000   0.2507
  -6.800  -0.7852   0.01312   0.00653   0.0063  1.0000  0.0423  -3.8706   0.0000   0.0000   0.0000   0.2518
  -6.700  -0.7772   0.01296   0.00636   0.0068  1.0000  0.0458  -3.7830   0.0000   0.0000   0.0000   0.2527
  -6.600  -0.7684   0.01287   0.00625   0.0073  1.0000  0.0481  -3.6891   0.0000   0.0000   0.0000   0.2535
  -6.500  -0.7625   0.01247   0.00587   0.0083  1.0000  0.0575  -3.6197   0.0000   0.0000   0.0000   0.2549
  -6.400  -0.7546   0.01228   0.00573   0.0089  1.0000  0.0632  -3.5330   0.0000   0.0000   0.0000   0.2559
  -6.300  -0.7460   0.01219   0.00562   0.0094  1.0000  0.0665  -3.4417   0.0000   0.0000   0.0000   0.2568
  -6.200  -0.7381   0.01202   0.00544   0.0100  1.0000  0.0714  -3.3573   0.0000   0.0000   0.0000   0.2579
  -6.100  -0.7304   0.01182   0.00529   0.0106  1.0000  0.0776  -3.2734   0.0000   0.0000   0.0000   0.2590
  -6.000  -0.7223   0.01168   0.00517   0.0112  1.0000  0.0824  -3.1866   0.0000   0.0000   0.0000   0.2600
  -5.900  -0.7139   0.01157   0.00505   0.0117  1.0000  0.0861  -3.0987   0.0000   0.0000   0.0000   0.2610
  -5.800  -0.7053   0.01149   0.00495   0.0122  1.0000  0.0891  -3.0112   0.0000   0.0000   0.0000   0.2620
  -5.700  -0.6977   0.01130   0.00480   0.0128  1.0000  0.0962  -2.9300   0.0000   0.0000   0.0000   0.2632
  -5.600  -0.6897   0.01116   0.00469   0.0134  1.0000  0.1019  -2.8468   0.0000   0.0000   0.0000   0.2643
  -5.500  -0.6814   0.01105   0.00459   0.0139  1.0000  0.1068  -2.7628   0.0000   0.0000   0.0000   0.2654
  -5.400  -0.6730   0.01096   0.00449   0.0145  1.0000  0.1110  -2.6792   0.0000   0.0000   0.0000   0.2665
  -5.300  -0.6653   0.01080   0.00438   0.0151  1.0000  0.1188  -2.5999   0.0000   0.0000   0.0000   0.2678
  -5.200  -0.6573   0.01068   0.00429   0.0157  1.0000  0.1255  -2.5197   0.0000   0.0000   0.0000   0.2690
  -5.100  -0.6489   0.01060   0.00420   0.0162  1.0000  0.1310  -2.4389   0.0000   0.0000   0.0000   0.2702
  -5.000  -0.6411   0.01046   0.00411   0.0168  1.0000  0.1390  -2.3614   0.0000   0.0000   0.0000   0.2715
  -4.900  -0.6332   0.01035   0.00403   0.0174  1.0000  0.1472  -2.2841   0.0000   0.0000   0.0000   0.2728
  -4.800  -0.6249   0.01027   0.00396   0.0179  1.0000  0.1541  -2.2093   0.0000   0.0000   0.0000   0.2741
  -4.700  -0.6173   0.01013   0.00389   0.0185  1.0000  0.1644  -2.1472   0.0000   0.0000   0.0000   0.2756
  -4.600  -0.6093   0.01004   0.00382   0.0191  1.0000  0.1733  -2.0860   0.0000   0.0000   0.0000   0.2770
  -4.500  -0.6014   0.00995   0.00376   0.0197  1.0000  0.1819  -2.0350   0.0000   0.0000   0.0000   0.2784
  -4.400  -0.5938   0.00984   0.00367   0.0203  1.0000  0.1923  -1.9855   0.0000   0.0000   0.0000   0.2799
  -4.300  -0.5859   0.00976   0.00361   0.0209  1.0000  0.2020  -1.9351   0.0000   0.0000   0.0000   0.2815
  -4.200  -0.5737   0.00963   0.00356   0.0205  0.9993  0.2170  -1.8737   0.0000   0.0000   0.0000   0.2817
  -4.100  -0.5589   0.00949   0.00350   0.0196  0.9979  0.2346  -1.8060   0.0000   0.0000   0.0000   0.2810
  -4.000  -0.5441   0.00936   0.00345   0.0187  0.9964  0.2529  -1.7388   0.0000   0.0000   0.0000   0.2804
  -3.900  -0.5292   0.00924   0.00340   0.0178  0.9949  0.2711  -1.6720   0.0000   0.0000   0.0000   0.2797
  -3.800  -0.5141   0.00912   0.00336   0.0168  0.9933  0.2889  -1.6058   0.0000   0.0000   0.0000   0.2789
  -3.700  -0.4988   0.00901   0.00331   0.0158  0.9919  0.3044  -1.5397   0.0000   0.0000   0.0000   0.2779
  -3.600  -0.4830   0.00892   0.00327   0.0148  0.9906  0.3194  -1.4732   0.0000   0.0000   0.0000   0.2768
  -3.500  -0.4674   0.00883   0.00324   0.0137  0.9894  0.3356  -1.4079   0.0000   0.0000   0.0000   0.2757
  -3.400  -0.4546   0.00869   0.00316   0.0134  0.9874  0.3502  -1.3502   0.0000   0.0000   0.0000   0.2757
  -3.300  -0.4410   0.00858   0.00309   0.0128  0.9853  0.3649  -1.2910   0.0000   0.0000   0.0000   0.2754
  -3.200  -0.4271   0.00846   0.00303   0.0122  0.9830  0.3811  -1.2317   0.0000   0.0000   0.0000   0.2749
  -3.100  -0.4129   0.00833   0.00298   0.0114  0.9808  0.3973  -1.1724   0.0000   0.0000   0.0000   0.2742
  -3.000  -0.3982   0.00821   0.00293   0.0106  0.9787  0.4154  -1.1124   0.0000   0.0000   0.0000   0.2733
  -2.900  -0.3831   0.00810   0.00286   0.0098  0.9767  0.4349  -1.0561   0.0000   0.0000   0.0000   0.2721
  -2.800  -0.3678   0.00798   0.00281   0.0089  0.9749  0.4548  -1.0229   0.0000   0.0000   0.0000   0.2707
  -2.700  -0.3523   0.00786   0.00277   0.0079  0.9733  0.4737  -0.9897   0.0000   0.0000   0.0000   0.2691
  -2.600  -0.3364   0.00775   0.00273   0.0069  0.9719  0.4910  -0.9562   0.0000   0.0000   0.0000   0.2671
  -2.500  -0.3203   0.00764   0.00269   0.0058  0.9706  0.5095  -0.9227   0.0000   0.0000   0.0000   0.2648
  -2.400  -0.3040   0.00753   0.00266   0.0047  0.9695  0.5293  -0.8892   0.0000   0.0000   0.0000   0.2621
  -2.300  -0.2961   0.00741   0.00259   0.0055  0.9646  0.5451  -0.8664   0.0000   0.0000   0.0000   0.2652
  -2.200  -0.2839   0.00728   0.00254   0.0053  0.9611  0.5616  -0.8383   0.0000   0.0000   0.0000   0.2654
  -2.100  -0.2701   0.00718   0.00249   0.0048  0.9582  0.5773  -0.8086   0.0000   0.0000   0.0000   0.2645
  -2.000  -0.2556   0.00708   0.00244   0.0041  0.9557  0.5942  -0.7782   0.0000   0.0000   0.0000   0.2629
  -1.900  -0.2408   0.00696   0.00240   0.0034  0.9535  0.6114  -0.7476   0.0000   0.0000   0.0000   0.2609
  -1.800  -0.2255   0.00685   0.00235   0.0026  0.9515  0.6280  -0.7166   0.0000   0.0000   0.0000   0.2582
  -1.700  -0.2097   0.00676   0.00229   0.0016  0.9497  0.6438  -0.6866   0.0000   0.0000   0.0000   0.2547
  -1.600  -0.1943   0.00666   0.00225   0.0008  0.9478  0.6589  -0.6613   0.0000   0.0000   0.0000   0.2511
  -1.500  -0.1837   0.00657   0.00221   0.0010  0.9430  0.6722  -0.6407   0.0000   0.0000   0.0000   0.2526
  -1.400  -0.1724   0.00649   0.00218   0.0012  0.9379  0.6865  -0.6198   0.0000   0.0000   0.0000   0.2537
  -1.300  -0.1595   0.00639   0.00214   0.0009  0.9336  0.7001  -0.5973   0.0000   0.0000   0.0000   0.2528
  -1.100  -0.1298   0.00622   0.00206  -0.0004  0.9264  0.7263  -0.5497   0.0000   0.0000   0.0000   0.2439
  -1.000  -0.1167   0.00616   0.00202  -0.0007  0.9215  0.7385  -0.5309   0.0000   0.0000   0.0000   0.2412
  -0.900  -0.1057   0.00609   0.00200  -0.0005  0.9146  0.7505  -0.5138   0.0000   0.0000   0.0000   0.2423
  -0.800  -0.0925   0.00604   0.00197  -0.0008  0.9085  0.7621  -0.4952   0.0000   0.0000   0.0000   0.2388
  -0.700  -0.0788   0.00597   0.00194  -0.0011  0.9030  0.7735  -0.4762   0.0000   0.0000   0.0000   0.2326
  -0.600  -0.0673   0.00594   0.00191  -0.0011  0.8957  0.7843  -0.4596   0.0000   0.0000   0.0000   0.2312
  -0.500  -0.0559   0.00589   0.00190  -0.0009  0.8875  0.7948  -0.4449   0.0000   0.0000   0.0000   0.2308
  -0.400  -0.0438   0.00587   0.00187  -0.0009  0.8799  0.8054  -0.4297   0.0000   0.0000   0.0000   0.2254
  -0.300  -0.0327   0.00584   0.00187  -0.0007  0.8718  0.8152  -0.4154   0.0000   0.0000   0.0000   0.2246
  -0.200  -0.0220   0.00582   0.00186  -0.0005  0.8626  0.8258  -0.4013   0.0000   0.0000   0.0000   0.2264
   0.000  -0.0000   0.00581   0.00185   0.0000  0.8446  0.8446  -0.3747   0.0000   0.0000   0.0000   0.6918
   0.200   0.0220   0.00582   0.00186   0.0005  0.8256  0.8627  -0.4011   0.0000   0.0000   0.0000   0.2261
   0.300   0.0327   0.00584   0.00187   0.0007  0.8151  0.8719  -0.4152   0.0000   0.0000   0.0000   0.2245
   0.400   0.0438   0.00587   0.00187   0.0009  0.8053  0.8800  -0.4295   0.0000   0.0000   0.0000   0.2254
   0.500   0.0560   0.00589   0.00190   0.0009  0.7946  0.8876  -0.4447   0.0000   0.0000   0.0000   0.2307
   0.700   0.0788   0.00597   0.00194   0.0011  0.7735  0.9030  -0.4765   0.0000   0.0000   0.0000   0.2327
   0.800   0.0926   0.00604   0.00197   0.0007  0.7622  0.9085  -0.4956   0.0000   0.0000   0.0000   0.2389
   0.900   0.1057   0.00609   0.00200   0.0005  0.7507  0.9147  -0.5142   0.0000   0.0000   0.0000   0.2424
   1.000   0.1168   0.00616   0.00202   0.0007  0.7387  0.9216  -0.5313   0.0000   0.0000   0.0000   0.2412
   1.100   0.1299   0.00622   0.00206   0.0004  0.7265  0.9264  -0.5501   0.0000   0.0000   0.0000   0.2440
   1.300   0.1596   0.00639   0.00214  -0.0009  0.7004  0.9336  -0.5969   0.0000   0.0000   0.0000   0.2529
   1.400   0.1725   0.00649   0.00218  -0.0012  0.6869  0.9379  -0.6194   0.0000   0.0000   0.0000   0.2538
   1.500   0.1837   0.00657   0.00222  -0.0011  0.6726  0.9430  -0.6404   0.0000   0.0000   0.0000   0.2527
   1.600   0.1944   0.00665   0.00225  -0.0008  0.6593  0.9478  -0.6609   0.0000   0.0000   0.0000   0.2512
   1.700   0.2098   0.00676   0.00229  -0.0017  0.6439  0.9498  -0.6863   0.0000   0.0000   0.0000   0.2548
   1.800   0.2255   0.00685   0.00235  -0.0026  0.6277  0.9516  -0.7163   0.0000   0.0000   0.0000   0.2583
   1.900   0.2409   0.00696   0.00240  -0.0034  0.6109  0.9535  -0.7472   0.0000   0.0000   0.0000   0.2610
   2.000   0.2557   0.00708   0.00244  -0.0041  0.5938  0.9557  -0.7778   0.0000   0.0000   0.0000   0.2630
   2.100   0.2702   0.00718   0.00249  -0.0048  0.5771  0.9583  -0.8082   0.0000   0.0000   0.0000   0.2645
   2.200   0.2840   0.00728   0.00254  -0.0053  0.5617  0.9611  -0.8380   0.0000   0.0000   0.0000   0.2655
   2.300   0.2962   0.00740   0.00259  -0.0055  0.5455  0.9646  -0.8660   0.0000   0.0000   0.0000   0.2653
   2.400   0.3042   0.00753   0.00266  -0.0047  0.5298  0.9695  -0.8890   0.0000   0.0000   0.0000   0.2622
   2.500   0.3205   0.00764   0.00269  -0.0058  0.5101  0.9706  -0.9226   0.0000   0.0000   0.0000   0.2649
   2.600   0.3366   0.00775   0.00273  -0.0069  0.4914  0.9719  -0.9560   0.0000   0.0000   0.0000   0.2672
   2.700   0.3525   0.00786   0.00277  -0.0079  0.4740  0.9733  -0.9894   0.0000   0.0000   0.0000   0.2691
   2.800   0.3679   0.00798   0.00281  -0.0089  0.4551  0.9749  -1.0226   0.0000   0.0000   0.0000   0.2708
   2.900   0.3832   0.00809   0.00285  -0.0098  0.4352  0.9767  -1.0558   0.0000   0.0000   0.0000   0.2721
   3.000   0.3981   0.00821   0.00292  -0.0106  0.4156  0.9786  -1.1118   0.0000   0.0000   0.0000   0.2733
   3.100   0.4127   0.00833   0.00297  -0.0114  0.3974  0.9807  -1.1716   0.0000   0.0000   0.0000   0.2742
   3.200   0.4269   0.00845   0.00303  -0.0121  0.3811  0.9829  -1.2308   0.0000   0.0000   0.0000   0.2748
   3.300   0.4408   0.00857   0.00309  -0.0127  0.3650  0.9852  -1.2900   0.0000   0.0000   0.0000   0.2753
   3.400   0.4544   0.00868   0.00315  -0.0133  0.3503  0.9873  -1.3491   0.0000   0.0000   0.0000   0.2756
   3.500   0.4672   0.00882   0.00323  -0.0137  0.3357  0.9894  -1.4070   0.0000   0.0000   0.0000   0.2756
   3.600   0.4829   0.00892   0.00327  -0.0147  0.3196  0.9906  -1.4724   0.0000   0.0000   0.0000   0.2768
   3.700   0.4988   0.00901   0.00331  -0.0158  0.3044  0.9919  -1.5392   0.0000   0.0000   0.0000   0.2780
   3.800   0.5142   0.00912   0.00336  -0.0168  0.2889  0.9934  -1.6055   0.0000   0.0000   0.0000   0.2789
   3.900   0.5294   0.00924   0.00340  -0.0178  0.2712  0.9949  -1.6721   0.0000   0.0000   0.0000   0.2798
   4.000   0.5445   0.00936   0.00345  -0.0188  0.2529  0.9965  -1.7393   0.0000   0.0000   0.0000   0.2805
   4.100   0.5594   0.00949   0.00350  -0.0197  0.2346  0.9980  -1.8065   0.0000   0.0000   0.0000   0.2812
   4.200   0.5742   0.00963   0.00356  -0.0206  0.2173  0.9994  -1.8744   0.0000   0.0000   0.0000   0.2818
   4.300   0.5859   0.00976   0.00361  -0.0209  0.2026  1.0000  -1.9345   0.0000   0.0000   0.0000   0.2815
   4.400   0.5937   0.00984   0.00367  -0.0203  0.1927  1.0000  -1.9848   0.0000   0.0000   0.0000   0.2799
   4.500   0.6014   0.00994   0.00375  -0.0197  0.1823  1.0000  -2.0344   0.0000   0.0000   0.0000   0.2784
   4.600   0.6093   0.01004   0.00382  -0.0191  0.1735  1.0000  -2.0852   0.0000   0.0000   0.0000   0.2770
   4.700   0.6173   0.01013   0.00388  -0.0185  0.1646  1.0000  -2.1447   0.0000   0.0000   0.0000   0.2756
   4.800   0.6249   0.01027   0.00396  -0.0179  0.1543  1.0000  -2.2067   0.0000   0.0000   0.0000   0.2741
   4.900   0.6331   0.01034   0.00403  -0.0174  0.1474  1.0000  -2.2821   0.0000   0.0000   0.0000   0.2728
   5.000   0.6410   0.01046   0.00411  -0.0168  0.1392  1.0000  -2.3594   0.0000   0.0000   0.0000   0.2715
   5.100   0.6489   0.01059   0.00420  -0.0162  0.1311  1.0000  -2.4368   0.0000   0.0000   0.0000   0.2702
   5.200   0.6572   0.01068   0.00429  -0.0157  0.1256  1.0000  -2.5176   0.0000   0.0000   0.0000   0.2690
   5.300   0.6652   0.01080   0.00438  -0.0151  0.1189  1.0000  -2.5978   0.0000   0.0000   0.0000   0.2678
   5.400   0.6730   0.01096   0.00449  -0.0145  0.1111  1.0000  -2.6771   0.0000   0.0000   0.0000   0.2665
   5.500   0.6814   0.01105   0.00459  -0.0139  0.1068  1.0000  -2.7606   0.0000   0.0000   0.0000   0.2654
   5.600   0.6896   0.01115   0.00469  -0.0134  0.1019  1.0000  -2.8445   0.0000   0.0000   0.0000   0.2643
   5.700   0.6976   0.01130   0.00480  -0.0128  0.0962  1.0000  -2.9277   0.0000   0.0000   0.0000   0.2632
   5.800   0.7053   0.01149   0.00495  -0.0122  0.0891  1.0000  -3.0087   0.0000   0.0000   0.0000   0.2620
   5.900   0.7138   0.01157   0.00505  -0.0117  0.0861  1.0000  -3.0963   0.0000   0.0000   0.0000   0.2610
   6.000   0.7223   0.01168   0.00517  -0.0112  0.0823  1.0000  -3.1841   0.0000   0.0000   0.0000   0.2600
   6.100   0.7304   0.01182   0.00529  -0.0106  0.0775  1.0000  -3.2708   0.0000   0.0000   0.0000   0.2590
   6.200   0.7380   0.01202   0.00544  -0.0100  0.0713  1.0000  -3.3545   0.0000   0.0000   0.0000   0.2579
   6.300   0.7459   0.01219   0.00562  -0.0093  0.0665  1.0000  -3.4391   0.0000   0.0000   0.0000   0.2568
   6.400   0.7546   0.01229   0.00574  -0.0089  0.0631  1.0000  -3.5302   0.0000   0.0000   0.0000   0.2559
   6.500   0.7624   0.01247   0.00588  -0.0083  0.0577  1.0000  -3.6170   0.0000   0.0000   0.0000   0.2549
   6.600   0.7683   0.01289   0.00627  -0.0073  0.0481  1.0000  -3.6852   0.0000   0.0000   0.0000   0.2535
   6.700   0.7771   0.01296   0.00637  -0.0068  0.0461  1.0000  -3.7798   0.0000   0.0000   0.0000   0.2527
   6.800   0.7852   0.01312   0.00654  -0.0063  0.0427  1.0000  -3.8682   0.0000   0.0000   0.0000   0.2518
   6.900   0.7927   0.01335   0.00674  -0.0056  0.0393  1.0000  -3.9521   0.0000   0.0000   0.0000   0.2508
   7.000   0.7994   0.01368   0.00705  -0.0047  0.0358  1.0000  -4.0245   0.0000   0.0000   0.0000   0.2495
   7.100   0.8041   0.01423   0.00766  -0.0035  0.0328  1.0000  -4.0741   0.0000   0.0000   0.0000   0.2479
   7.200   0.8101   0.01463   0.00811  -0.0025  0.0317  1.0000  -4.1560   0.0000   0.0000   0.0000   0.2465
   7.300   0.8182   0.01479   0.00830  -0.0019  0.0314  1.0000  -4.2634   0.0000   0.0000   0.0000   0.2457
   7.400   0.8263   0.01495   0.00849  -0.0013  0.0309  1.0000  -4.3716   0.0000   0.0000   0.0000   0.2449
   7.500   0.8343   0.01512   0.00869  -0.0008  0.0304  1.0000  -4.4807   0.0000   0.0000   0.0000   0.2440
   7.600   0.8423   0.01530   0.00889  -0.0002  0.0297  1.0000  -4.5909   0.0000   0.0000   0.0000   0.2432
   7.700   0.8502   0.01547   0.00908   0.0004  0.0290  1.0000  -4.7025   0.0000   0.0000   0.0000   0.2424
   7.800   0.8582   0.01564   0.00928   0.0010  0.0281  1.0000  -4.8157   0.0000   0.0000   0.0000   0.2417
   7.900   0.8661   0.01582   0.00947   0.0016  0.0273  1.0000  -4.9301   0.0000   0.0000   0.0000   0.2409
   8.000   0.8740   0.01600   0.00967   0.0022  0.0264  1.0000  -5.0451   0.0000   0.0000   0.0000   0.2402
   8.100   0.8817   0.01620   0.00988   0.0028  0.0256  1.0000  -5.1589   0.0000   0.0000   0.0000   0.2394
   8.200   0.8891   0.01642   0.01013   0.0034  0.0249  1.0000  -5.2703   0.0000   0.0000   0.0000   0.2386
   8.300   0.8963   0.01668   0.01040   0.0041  0.0241  1.0000  -5.3789   0.0000   0.0000   0.0000   0.2377
   8.400   0.9028   0.01700   0.01074   0.0049  0.0232  1.0000  -5.4810   0.0000   0.0000   0.0000   0.2368
   8.500   0.9083   0.01744   0.01121   0.0059  0.0222  1.0000  -5.5687   0.0000   0.0000   0.0000   0.2356
   8.600   0.9117   0.01813   0.01197   0.0072  0.0211  1.0000  -5.6275   0.0000   0.0000   0.0000   0.2341
   8.700   0.9110   0.01940   0.01339   0.0091  0.0200  1.0000  -5.6282   0.0000   0.0000   0.0000   0.2319
   8.800   0.9162   0.01996   0.01401   0.0101  0.0196  1.0000  -5.7067   0.0000   0.0000   0.0000   0.2308
   8.900   0.9242   0.02010   0.01417   0.0106  0.0193  1.0000  -5.8261   0.0000   0.0000   0.0000   0.2302
   9.000   0.9319   0.02028   0.01438   0.0112  0.0190  1.0000  -5.9423   0.0000   0.0000   0.0000   0.2295
   9.100   0.9393   0.02049   0.01467   0.0119  0.0186  1.0000  -6.0578   0.0000   0.0000   0.0000   0.2288
   9.200   0.9464   0.02073   0.01494   0.0125  0.0182  1.0000  -6.1705   0.0000   0.0000   0.0000   0.2281
   9.300   0.9535   0.02098   0.01522   0.0132  0.0177  1.0000  -6.2818   0.0000   0.0000   0.0000   0.2274
   9.400   0.9604   0.02123   0.01550   0.0138  0.0171  1.0000  -6.3932   0.0000   0.0000   0.0000   0.2267
   9.500   0.9673   0.02147   0.01577   0.0145  0.0165  1.0000  -6.5073   0.0000   0.0000   0.0000   0.2260
   9.600   0.9742   0.02168   0.01600   0.0152  0.0160  1.0000  -6.6254   0.0000   0.0000   0.0000   0.2253
   9.700   0.9811   0.02188   0.01621   0.0158  0.0154  1.0000  -6.7479   0.0000   0.0000   0.0000   0.2247
   9.800   0.9879   0.02207   0.01641   0.0164  0.0149  1.0000  -6.8727   0.0000   0.0000   0.0000   0.2240
   9.900   0.9943   0.02229   0.01664   0.0171  0.0144  1.0000  -6.9964   0.0000   0.0000   0.0000   0.2234
  10.000   1.0001   0.02259   0.01695   0.0178  0.0140  1.0000  -7.1116   0.0000   0.0000   0.0000   0.2226
  10.100   1.0043   0.02305   0.01744   0.0188  0.0135  1.0000  -7.2048   0.0000   0.0000   0.0000   0.2216
  10.200   1.0064   0.02378   0.01823   0.0200  0.0130  1.0000  -7.2624   0.0000   0.0000   0.0000   0.2203
  10.300   1.0059   0.02483   0.01938   0.0216  0.0126  1.0000  -7.2803   0.0000   0.0000   0.0000   0.2186
  10.400   1.0027   0.02627   0.02096   0.0234  0.0123  1.0000  -7.2555   0.0000   0.0000   0.0000   0.2166
  10.500   0.9966   0.02808   0.02296   0.0255  0.0120  1.0000  -7.1908   0.0000   0.0000   0.0000   0.2143
  10.600   0.9961   0.02910   0.02408   0.0269  0.0118  1.0000  -7.2133   0.0000   0.0000   0.0000   0.2127
  10.700   1.0004   0.02943   0.02446   0.0278  0.0118  1.0000  -7.3104   0.0000   0.0000   0.0000   0.2118
  10.800   1.0042   0.02980   0.02489   0.0288  0.0117  1.0000  -7.4012   0.0000   0.0000   0.0000   0.2109
  10.900   1.0074   0.03022   0.02536   0.0298  0.0116  1.0000  -7.4859   0.0000   0.0000   0.0000   0.2098
  11.000   1.0093   0.03067   0.02586   0.0310  0.0115  1.0000  -7.5601   0.0000   0.0000   0.0000   0.2086
  11.100   1.0100   0.03113   0.02638   0.0323  0.0115  1.0000  -7.6251   0.0000   0.0000   0.0000   0.2071
  11.200   1.0100   0.03162   0.02692   0.0338  0.0114  1.0000  -7.6841   0.0000   0.0000   0.0000   0.2055
  11.300   1.0098   0.03215   0.02751   0.0352  0.0113  1.0000  -7.7396   0.0000   0.0000   0.0000   0.2040
  11.400   1.0092   0.03272   0.02815   0.0365  0.0112  1.0000  -7.7913   0.0000   0.0000   0.0000   0.2025
  11.500   1.0085   0.03334   0.02883   0.0378  0.0111  1.0000  -7.8397   0.0000   0.0000   0.0000   0.2011
  11.600   1.0073   0.03400   0.02955   0.0390  0.0111  1.0000  -7.8838   0.0000   0.0000   0.0000   0.1998
  11.700   1.0059   0.03472   0.03033   0.0401  0.0110  1.0000  -7.9239   0.0000   0.0000   0.0000   0.1984
  11.800   1.0041   0.03549   0.03117   0.0411  0.0109  1.0000  -7.9598   0.0000   0.0000   0.0000   0.1972
  11.900   1.0019   0.03631   0.03206   0.0420  0.0108  1.0000  -7.9912   0.0000   0.0000   0.0000   0.1960
  12.000   0.9994   0.03720   0.03302   0.0428  0.0107  1.0000  -8.0180   0.0000   0.0000   0.0000   0.1950
  12.100   0.9964   0.03816   0.03404   0.0435  0.0107  1.0000  -8.0403   0.0000   0.0000   0.0000   0.1940
  12.200   0.9931   0.03919   0.03515   0.0441  0.0106  1.0000  -8.0577   0.0000   0.0000   0.0000   0.1931
  12.300   0.9895   0.04030   0.03633   0.0444  0.0105  1.0000  -8.0703   0.0000   0.0000   0.0000   0.1924
  12.400   0.9855   0.04152   0.03762   0.0447  0.0105  1.0000  -8.0781   0.0000   0.0000   0.0000   0.1918
  12.500   0.9811   0.04283   0.03900   0.0447  0.0104  1.0000  -8.0806   0.0000   0.0000   0.0000   0.1914
  12.600   0.9765   0.04426   0.04050   0.0446  0.0104  1.0000  -8.0776   0.0000   0.0000   0.0000   0.1912
  12.700   0.9714   0.04581   0.04213   0.0442  0.0104  1.0000  -8.0690   0.0000   0.0000   0.0000   0.1911
  12.800   0.9661   0.04750   0.04389   0.0436  0.0103  1.0000  -8.0543   0.0000   0.0000   0.0000   0.1912
  12.900   0.9603   0.04935   0.04581   0.0429  0.0103  1.0000  -8.0326   0.0000   0.0000   0.0000   0.1916
  13.000   0.9541   0.05135   0.04789   0.0418  0.0103  1.0000  -8.0035   0.0000   0.0000   0.0000   0.1922
  13.100   0.9475   0.05354   0.05014   0.0406  0.0103  1.0000  -7.9665   0.0000   0.0000   0.0000   0.1930
  13.200   0.9405   0.05593   0.05261   0.0391  0.0103  1.0000  -7.9204   0.0000   0.0000   0.0000   0.1940
  13.300   0.9329   0.05853   0.05528   0.0374  0.0103  1.0000  -7.8647   0.0000   0.0000   0.0000   0.1953
  13.400   0.9248   0.06137   0.05819   0.0355  0.0103  1.0000  -7.7974   0.0000   0.0000   0.0000   0.1969
  13.500   0.9159   0.06443   0.06133   0.0333  0.0103  1.0000  -7.7177   0.0000   0.0000   0.0000   0.1986
  13.600   0.9063   0.06775   0.06472   0.0310  0.0104  1.0000  -7.6237   0.0000   0.0000   0.0000   0.2006
  13.700   0.8957   0.07138   0.06842   0.0285  0.0105  1.0000  -7.5125   0.0000   0.0000   0.0000   0.2029
  13.800   0.8841   0.07532   0.07243   0.0258  0.0105  1.0000  -7.3822   0.0000   0.0000   0.0000   0.2054
  13.900   0.8710   0.07969   0.07686   0.0229  0.0107  1.0000  -7.2250   0.0000   0.0000   0.0000   0.2081
  14.000   0.8560   0.08453   0.08177   0.0198  0.0108  1.0000  -7.0343   0.0000   0.0000   0.0000   0.2112
  14.100   0.8377   0.09015   0.08745   0.0163  0.0110  1.0000  -6.7872   0.0000   0.0000   0.0000   0.2148
  14.200   0.8126   0.09743   0.09479   0.0120  0.0113  1.0000  -6.4205   0.0000   0.0000   0.0000   0.2195
  15.000   0.4461   0.10867   0.10670  -0.0183  0.0186  1.0000  -1.8395   0.0000   0.0000   0.0000   0.2849


