xflr5 v6.61

 Calculated polar for: SD8020-010-88

 1 1 Reynolds number fixed          Mach number fixed         

 xtrf =   1.000 (top)        1.000 (bottom)
 Mach =   0.000     Re =     0.400 e 6     Ncrit =   9.000

  alpha     CL        CD       CDp       Cm    Top Xtr Bot Xtr   Cpmin    Chinge    XCp    
 ------- -------- --------- --------- -------- ------- ------- -------- --------- ---------
 -10.000  -0.9856   0.02480   0.01925  -0.0201  1.0000  0.0154  -6.8359   0.0000   0.0000   0.0000   0.2201
  -9.900  -0.9795   0.02456   0.01900  -0.0194  1.0000  0.0159  -6.7209   0.0000   0.0000   0.0000   0.2208
  -9.800  -0.9734   0.02430   0.01871  -0.0187  1.0000  0.0164  -6.6100   0.0000   0.0000   0.0000   0.2215
  -9.700  -0.9673   0.02402   0.01840  -0.0179  1.0000  0.0169  -6.5035   0.0000   0.0000   0.0000   0.2223
  -9.600  -0.9611   0.02372   0.01806  -0.0172  1.0000  0.0175  -6.4000   0.0000   0.0000   0.0000   0.2230
  -9.500  -0.9548   0.02341   0.01771  -0.0165  1.0000  0.0180  -6.2980   0.0000   0.0000   0.0000   0.2238
  -9.400  -0.9483   0.02311   0.01737  -0.0157  1.0000  0.0184  -6.1959   0.0000   0.0000   0.0000   0.2246
  -9.300  -0.9415   0.02283   0.01705  -0.0150  1.0000  0.0189  -6.0916   0.0000   0.0000   0.0000   0.2253
  -9.200  -0.9345   0.02259   0.01677  -0.0144  1.0000  0.0192  -5.9837   0.0000   0.0000   0.0000   0.2260
  -9.100  -0.9271   0.02239   0.01648  -0.0137  1.0000  0.0194  -5.8715   0.0000   0.0000   0.0000   0.2267
  -9.000  -0.9193   0.02225   0.01631  -0.0132  1.0000  0.0197  -5.7557   0.0000   0.0000   0.0000   0.2273
  -8.900  -0.9198   0.02070   0.01461  -0.0114  1.0000  0.0205  -5.7660   0.0000   0.0000   0.0000   0.2293
  -8.800  -0.9189   0.01956   0.01335  -0.0098  1.0000  0.0215  -5.7474   0.0000   0.0000   0.0000   0.2311
  -8.700  -0.9152   0.01888   0.01261  -0.0086  1.0000  0.0225  -5.6851   0.0000   0.0000   0.0000   0.2325
  -8.600  -0.9097   0.01843   0.01213  -0.0077  1.0000  0.0234  -5.5973   0.0000   0.0000   0.0000   0.2336
  -8.500  -0.9033   0.01809   0.01178  -0.0069  1.0000  0.0242  -5.4960   0.0000   0.0000   0.0000   0.2345
  -8.400  -0.8962   0.01783   0.01149  -0.0062  1.0000  0.0250  -5.3882   0.0000   0.0000   0.0000   0.2353
  -8.300  -0.8890   0.01758   0.01122  -0.0055  1.0000  0.0258  -5.2793   0.0000   0.0000   0.0000   0.2361
  -8.200  -0.8816   0.01734   0.01096  -0.0049  1.0000  0.0265  -5.1706   0.0000   0.0000   0.0000   0.2369
  -8.100  -0.8740   0.01713   0.01073  -0.0043  1.0000  0.0274  -5.0585   0.0000   0.0000   0.0000   0.2377
  -8.000  -0.8661   0.01694   0.01052  -0.0037  1.0000  0.0283  -4.9450   0.0000   0.0000   0.0000   0.2384
  -7.900  -0.8582   0.01677   0.01032  -0.0031  1.0000  0.0292  -4.8318   0.0000   0.0000   0.0000   0.2391
  -7.800  -0.8502   0.01659   0.01012  -0.0025  1.0000  0.0300  -4.7195   0.0000   0.0000   0.0000   0.2399
  -7.700  -0.8422   0.01642   0.00992  -0.0020  1.0000  0.0306  -4.6081   0.0000   0.0000   0.0000   0.2406
  -7.600  -0.8341   0.01625   0.00973  -0.0014  1.0000  0.0311  -4.4976   0.0000   0.0000   0.0000   0.2414
  -7.500  -0.8261   0.01608   0.00953  -0.0008  1.0000  0.0315  -4.3886   0.0000   0.0000   0.0000   0.2422
  -7.400  -0.8180   0.01591   0.00933  -0.0002  1.0000  0.0318  -4.2812   0.0000   0.0000   0.0000   0.2430
  -7.300  -0.8137   0.01531   0.00866   0.0010  1.0000  0.0330  -4.2169   0.0000   0.0000   0.0000   0.2446
  -7.200  -0.8091   0.01475   0.00803   0.0023  1.0000  0.0349  -4.1522   0.0000   0.0000   0.0000   0.2462
  -7.100  -0.8031   0.01435   0.00761   0.0032  1.0000  0.0373  -4.0792   0.0000   0.0000   0.0000   0.2475
  -7.000  -0.7960   0.01407   0.00734   0.0040  1.0000  0.0398  -4.0010   0.0000   0.0000   0.0000   0.2486
  -6.900  -0.7884   0.01384   0.00713   0.0046  1.0000  0.0426  -3.9168   0.0000   0.0000   0.0000   0.2496
  -6.800  -0.7804   0.01367   0.00695   0.0052  1.0000  0.0455  -3.8296   0.0000   0.0000   0.0000   0.2505
  -6.600  -0.7661   0.01312   0.00641   0.0067  1.0000  0.0558  -3.6762   0.0000   0.0000   0.0000   0.2528
  -6.500  -0.7586   0.01289   0.00619   0.0074  1.0000  0.0620  -3.5903   0.0000   0.0000   0.0000   0.2538
  -6.400  -0.7501   0.01278   0.00606   0.0079  1.0000  0.0661  -3.5006   0.0000   0.0000   0.0000   0.2547
  -6.300  -0.7422   0.01260   0.00587   0.0085  1.0000  0.0708  -3.4167   0.0000   0.0000   0.0000   0.2558
  -6.200  -0.7348   0.01237   0.00568   0.0092  1.0000  0.0774  -3.3349   0.0000   0.0000   0.0000   0.2569
  -6.100  -0.7268   0.01221   0.00555   0.0098  1.0000  0.0824  -3.2484   0.0000   0.0000   0.0000   0.2579
  -6.000  -0.7183   0.01211   0.00543   0.0103  1.0000  0.0862  -3.1603   0.0000   0.0000   0.0000   0.2588
  -5.900  -0.7098   0.01200   0.00531   0.0108  1.0000  0.0897  -3.0734   0.0000   0.0000   0.0000   0.2598
  -5.800  -0.7023   0.01179   0.00514   0.0115  1.0000  0.0967  -2.9926   0.0000   0.0000   0.0000   0.2610
  -5.700  -0.6943   0.01164   0.00502   0.0120  1.0000  0.1023  -2.9091   0.0000   0.0000   0.0000   0.2621
  -5.600  -0.6860   0.01153   0.00491   0.0126  1.0000  0.1071  -2.8245   0.0000   0.0000   0.0000   0.2632
  -5.500  -0.6776   0.01143   0.00480   0.0131  1.0000  0.1119  -2.7411   0.0000   0.0000   0.0000   0.2643
  -5.400  -0.6699   0.01125   0.00468   0.0137  1.0000  0.1195  -2.6616   0.0000   0.0000   0.0000   0.2655
  -5.300  -0.6619   0.01112   0.00457   0.0143  1.0000  0.1261  -2.5809   0.0000   0.0000   0.0000   0.2667
  -5.200  -0.6535   0.01104   0.00448   0.0148  1.0000  0.1315  -2.4992   0.0000   0.0000   0.0000   0.2679
  -5.100  -0.6458   0.01088   0.00437   0.0154  1.0000  0.1400  -2.4219   0.0000   0.0000   0.0000   0.2692
  -5.000  -0.6378   0.01076   0.00428   0.0160  1.0000  0.1482  -2.3440   0.0000   0.0000   0.0000   0.2704
  -4.900  -0.6296   0.01067   0.00420   0.0166  1.0000  0.1555  -2.2656   0.0000   0.0000   0.0000   0.2717
  -4.800  -0.6220   0.01052   0.00411   0.0172  1.0000  0.1657  -2.1964   0.0000   0.0000   0.0000   0.2731
  -4.700  -0.6139   0.01042   0.00404   0.0177  1.0000  0.1747  -2.1328   0.0000   0.0000   0.0000   0.2744
  -4.600  -0.6061   0.01030   0.00397   0.0183  1.0000  0.1847  -2.0740   0.0000   0.0000   0.0000   0.2759
  -4.500  -0.5983   0.01020   0.00390   0.0189  1.0000  0.1955  -2.0232   0.0000   0.0000   0.0000   0.2773
  -4.400  -0.5906   0.01009   0.00381   0.0195  1.0000  0.2064  -1.9737   0.0000   0.0000   0.0000   0.2788
  -4.300  -0.5829   0.00998   0.00375   0.0201  1.0000  0.2190  -1.9239   0.0000   0.0000   0.0000   0.2804
  -4.200  -0.5754   0.00986   0.00370   0.0207  1.0000  0.2321  -1.8751   0.0000   0.0000   0.0000   0.2820
  -4.100  -0.5676   0.00978   0.00365   0.0213  1.0000  0.2456  -1.8258   0.0000   0.0000   0.0000   0.2836
  -4.000  -0.5604   0.00965   0.00361   0.0220  1.0000  0.2602  -1.7784   0.0000   0.0000   0.0000   0.2853
  -3.900  -0.5474   0.00953   0.00356   0.0214  0.9991  0.2770  -1.7163   0.0000   0.0000   0.0000   0.2853
  -3.800  -0.5321   0.00944   0.00351   0.0205  0.9976  0.2934  -1.6491   0.0000   0.0000   0.0000   0.2847
  -3.700  -0.5170   0.00932   0.00347   0.0195  0.9959  0.3097  -1.5832   0.0000   0.0000   0.0000   0.2840
  -3.600  -0.5017   0.00922   0.00343   0.0185  0.9942  0.3255  -1.5175   0.0000   0.0000   0.0000   0.2833
  -3.500  -0.4861   0.00914   0.00339   0.0175  0.9925  0.3415  -1.4517   0.0000   0.0000   0.0000   0.2824
  -3.400  -0.4703   0.00904   0.00337   0.0164  0.9910  0.3587  -1.3863   0.0000   0.0000   0.0000   0.2813
  -3.300  -0.4543   0.00895   0.00334   0.0153  0.9897  0.3758  -1.3211   0.0000   0.0000   0.0000   0.2801
  -3.200  -0.4409   0.00882   0.00327   0.0148  0.9877  0.3913  -1.2630   0.0000   0.0000   0.0000   0.2800
  -3.000  -0.4134   0.00857   0.00316   0.0136  0.9829  0.4282  -1.1463   0.0000   0.0000   0.0000   0.2794
  -2.900  -0.3990   0.00844   0.00309   0.0129  0.9805  0.4480  -1.0864   0.0000   0.0000   0.0000   0.2789
  -2.800  -0.3842   0.00832   0.00304   0.0120  0.9782  0.4674  -1.0436   0.0000   0.0000   0.0000   0.2780
  -2.700  -0.3689   0.00821   0.00300   0.0111  0.9761  0.4859  -1.0105   0.0000   0.0000   0.0000   0.2769
  -2.600  -0.3532   0.00811   0.00296   0.0101  0.9743  0.5040  -0.9771   0.0000   0.0000   0.0000   0.2754
  -2.500  -0.3372   0.00800   0.00292   0.0091  0.9726  0.5240  -0.9436   0.0000   0.0000   0.0000   0.2737
  -2.400  -0.3211   0.00789   0.00290   0.0080  0.9712  0.5443  -0.9103   0.0000   0.0000   0.0000   0.2718
  -2.300  -0.3048   0.00778   0.00287   0.0069  0.9699  0.5636  -0.8768   0.0000   0.0000   0.0000   0.2696
  -2.200  -0.2944   0.00766   0.00281   0.0072  0.9660  0.5787  -0.8510   0.0000   0.0000   0.0000   0.2712
  -2.100  -0.2826   0.00756   0.00275   0.0071  0.9622  0.5947  -0.8235   0.0000   0.0000   0.0000   0.2720
  -2.000  -0.2693   0.00744   0.00271   0.0067  0.9591  0.6115  -0.7944   0.0000   0.0000   0.0000   0.2718
  -1.900  -0.2549   0.00733   0.00267   0.0061  0.9563  0.6284  -0.7643   0.0000   0.0000   0.0000   0.2709
  -1.800  -0.2398   0.00724   0.00263   0.0053  0.9540  0.6451  -0.7335   0.0000   0.0000   0.0000   0.2692
  -1.700  -0.2243   0.00713   0.00257   0.0045  0.9520  0.6611  -0.7023   0.0000   0.0000   0.0000   0.2669
  -1.600  -0.2084   0.00703   0.00253   0.0036  0.9502  0.6762  -0.6752   0.0000   0.0000   0.0000   0.2641
  -1.500  -0.1921   0.00695   0.00249   0.0026  0.9485  0.6916  -0.6490   0.0000   0.0000   0.0000   0.2603
  -1.400  -0.1785   0.00685   0.00246   0.0022  0.9455  0.7062  -0.6257   0.0000   0.0000   0.0000   0.2592
  -1.300  -0.1687   0.00677   0.00242   0.0026  0.9398  0.7186  -0.6061   0.0000   0.0000   0.0000   0.2625
  -1.200  -0.1558   0.00668   0.00238   0.0024  0.9354  0.7318  -0.5838   0.0000   0.0000   0.0000   0.2625
  -1.100  -0.1418   0.00660   0.00234   0.0019  0.9316  0.7441  -0.5604   0.0000   0.0000   0.0000   0.2608
  -1.000  -0.1265   0.00652   0.00230   0.0012  0.9282  0.7573  -0.5389   0.0000   0.0000   0.0000   0.2567
  -0.900  -0.1108   0.00644   0.00227   0.0004  0.9251  0.7690  -0.5180   0.0000   0.0000   0.0000   0.2508
  -0.800  -0.0999   0.00639   0.00224   0.0006  0.9185  0.7807  -0.5011   0.0000   0.0000   0.0000   0.2535
  -0.700  -0.0875   0.00632   0.00222   0.0006  0.9122  0.7913  -0.4831   0.0000   0.0000   0.0000   0.2534
  -0.600  -0.0736   0.00627   0.00219   0.0002  0.9066  0.8026  -0.4641   0.0000   0.0000   0.0000   0.2494
  -0.500  -0.0590   0.00622   0.00215  -0.0004  0.9015  0.8126  -0.4470   0.0000   0.0000   0.0000   0.2408
  -0.400  -0.0482   0.00618   0.00214  -0.0001  0.8935  0.8232  -0.4328   0.0000   0.0000   0.0000   0.2451
  -0.300  -0.0362   0.00615   0.00212  -0.0001  0.8856  0.8332  -0.4177   0.0000   0.0000   0.0000   0.2448
  -0.200  -0.0228   0.00612   0.00211  -0.0003  0.8787  0.8428  -0.4018   0.0000   0.0000   0.0000   0.2338
  -0.100  -0.0123   0.00612   0.00210   0.0000  0.8699  0.8525  -0.3879   0.0000   0.0000   0.0000   0.2471
   0.000   0.0000   0.00611   0.00210  -0.0000  0.8609  0.8609  -0.3746   0.0000   0.0000   0.0000   0.3343
   0.100   0.0123   0.00612   0.00210  -0.0000  0.8525  0.8700  -0.3879   0.0000   0.0000   0.0000   0.2471
   0.200   0.0229   0.00612   0.00211   0.0003  0.8427  0.8787  -0.4016   0.0000   0.0000   0.0000   0.2339
   0.300   0.0362   0.00615   0.00212   0.0001  0.8332  0.8857  -0.4175   0.0000   0.0000   0.0000   0.2448
   0.400   0.0482   0.00618   0.00214   0.0001  0.8231  0.8936  -0.4326   0.0000   0.0000   0.0000   0.2451
   0.500   0.0590   0.00622   0.00215   0.0004  0.8125  0.9015  -0.4469   0.0000   0.0000   0.0000   0.2409
   0.600   0.0737   0.00627   0.00219  -0.0002  0.8025  0.9067  -0.4644   0.0000   0.0000   0.0000   0.2495
   0.700   0.0875   0.00632   0.00222  -0.0006  0.7913  0.9122  -0.4834   0.0000   0.0000   0.0000   0.2535
   0.800   0.0999   0.00639   0.00224  -0.0006  0.7807  0.9186  -0.5015   0.0000   0.0000   0.0000   0.2535
   0.900   0.1109   0.00644   0.00227  -0.0004  0.7691  0.9251  -0.5183   0.0000   0.0000   0.0000   0.2509
   1.000   0.1266   0.00652   0.00230  -0.0012  0.7574  0.9282  -0.5393   0.0000   0.0000   0.0000   0.2568
   1.100   0.1419   0.00660   0.00234  -0.0020  0.7443  0.9316  -0.5601   0.0000   0.0000   0.0000   0.2609
   1.200   0.1559   0.00669   0.00238  -0.0024  0.7320  0.9355  -0.5834   0.0000   0.0000   0.0000   0.2625
   1.300   0.1687   0.00677   0.00242  -0.0026  0.7188  0.9399  -0.6058   0.0000   0.0000   0.0000   0.2626
   1.400   0.1785   0.00685   0.00246  -0.0022  0.7065  0.9456  -0.6253   0.0000   0.0000   0.0000   0.2592
   1.500   0.1922   0.00694   0.00249  -0.0026  0.6919  0.9485  -0.6487   0.0000   0.0000   0.0000   0.2604
   1.600   0.2085   0.00703   0.00253  -0.0036  0.6766  0.9502  -0.6748   0.0000   0.0000   0.0000   0.2642
   1.700   0.2244   0.00713   0.00257  -0.0045  0.6613  0.9520  -0.7019   0.0000   0.0000   0.0000   0.2670
   1.800   0.2399   0.00724   0.00263  -0.0053  0.6450  0.9540  -0.7331   0.0000   0.0000   0.0000   0.2692
   1.900   0.2550   0.00733   0.00267  -0.0061  0.6281  0.9564  -0.7639   0.0000   0.0000   0.0000   0.2709
   2.000   0.2693   0.00744   0.00271  -0.0067  0.6111  0.9591  -0.7940   0.0000   0.0000   0.0000   0.2718
   2.100   0.2826   0.00756   0.00275  -0.0071  0.5945  0.9623  -0.8231   0.0000   0.0000   0.0000   0.2720
   2.200   0.2945   0.00766   0.00281  -0.0072  0.5787  0.9661  -0.8506   0.0000   0.0000   0.0000   0.2713
   2.300   0.3050   0.00778   0.00287  -0.0070  0.5637  0.9699  -0.8766   0.0000   0.0000   0.0000   0.2697
   2.400   0.3214   0.00788   0.00290  -0.0081  0.5446  0.9712  -0.9101   0.0000   0.0000   0.0000   0.2720
   2.500   0.3374   0.00800   0.00292  -0.0091  0.5244  0.9727  -0.9434   0.0000   0.0000   0.0000   0.2738
   2.600   0.3533   0.00811   0.00296  -0.0102  0.5044  0.9743  -0.9768   0.0000   0.0000   0.0000   0.2755
   2.700   0.3690   0.00821   0.00300  -0.0111  0.4862  0.9762  -1.0102   0.0000   0.0000   0.0000   0.2769
   2.800   0.3842   0.00832   0.00304  -0.0120  0.4679  0.9782  -1.0431   0.0000   0.0000   0.0000   0.2780
   2.900   0.3989   0.00844   0.00308  -0.0128  0.4485  0.9805  -1.0857   0.0000   0.0000   0.0000   0.2788
   3.000   0.4132   0.00857   0.00316  -0.0135  0.4286  0.9829  -1.1455   0.0000   0.0000   0.0000   0.2794
   3.200   0.4407   0.00882   0.00327  -0.0148  0.3914  0.9876  -1.2620   0.0000   0.0000   0.0000   0.2800
   3.300   0.4540   0.00894   0.00334  -0.0152  0.3759  0.9897  -1.3199   0.0000   0.0000   0.0000   0.2800
   3.400   0.4701   0.00904   0.00336  -0.0164  0.3588  0.9910  -1.3852   0.0000   0.0000   0.0000   0.2812
   3.500   0.4860   0.00913   0.00339  -0.0175  0.3416  0.9925  -1.4510   0.0000   0.0000   0.0000   0.2823
   3.600   0.5017   0.00922   0.00343  -0.0186  0.3256  0.9942  -1.5171   0.0000   0.0000   0.0000   0.2833
   3.700   0.5171   0.00932   0.00347  -0.0196  0.3097  0.9959  -1.5830   0.0000   0.0000   0.0000   0.2841
   3.900   0.5478   0.00953   0.00356  -0.0215  0.2767  0.9991  -1.7168   0.0000   0.0000   0.0000   0.2854
   4.000   0.5604   0.00965   0.00360  -0.0220  0.2604  1.0000  -1.7778   0.0000   0.0000   0.0000   0.2853
   4.200   0.5753   0.00986   0.00370  -0.0207  0.2324  1.0000  -1.8744   0.0000   0.0000   0.0000   0.2819
   4.300   0.5828   0.00998   0.00375  -0.0201  0.2194  1.0000  -1.9232   0.0000   0.0000   0.0000   0.2803
   4.400   0.5906   0.01008   0.00380  -0.0195  0.2071  1.0000  -1.9731   0.0000   0.0000   0.0000   0.2788
   4.500   0.5983   0.01019   0.00390  -0.0189  0.1960  1.0000  -2.0225   0.0000   0.0000   0.0000   0.2773
   4.600   0.6061   0.01030   0.00397  -0.0183  0.1851  1.0000  -2.0733   0.0000   0.0000   0.0000   0.2759
   4.700   0.6139   0.01042   0.00404  -0.0177  0.1749  1.0000  -2.1303   0.0000   0.0000   0.0000   0.2744
   4.800   0.6219   0.01052   0.00411  -0.0172  0.1659  1.0000  -2.1939   0.0000   0.0000   0.0000   0.2731
   4.900   0.6296   0.01067   0.00420  -0.0165  0.1557  1.0000  -2.2637   0.0000   0.0000   0.0000   0.2717
   5.000   0.6378   0.01075   0.00428  -0.0160  0.1483  1.0000  -2.3419   0.0000   0.0000   0.0000   0.2704
   5.100   0.6457   0.01088   0.00437  -0.0154  0.1401  1.0000  -2.4199   0.0000   0.0000   0.0000   0.2691
   5.200   0.6534   0.01104   0.00448  -0.0148  0.1315  1.0000  -2.4971   0.0000   0.0000   0.0000   0.2678
   5.300   0.6619   0.01112   0.00457  -0.0143  0.1262  1.0000  -2.5787   0.0000   0.0000   0.0000   0.2667
   5.400   0.6699   0.01125   0.00467  -0.0137  0.1196  1.0000  -2.6595   0.0000   0.0000   0.0000   0.2655
   5.500   0.6776   0.01143   0.00480  -0.0131  0.1120  1.0000  -2.7390   0.0000   0.0000   0.0000   0.2643
   5.600   0.6859   0.01153   0.00491  -0.0126  0.1072  1.0000  -2.8223   0.0000   0.0000   0.0000   0.2632
   5.700   0.6943   0.01164   0.00502  -0.0120  0.1023  1.0000  -2.9068   0.0000   0.0000   0.0000   0.2621
   5.800   0.7022   0.01179   0.00514  -0.0115  0.0966  1.0000  -2.9902   0.0000   0.0000   0.0000   0.2610
   5.900   0.7097   0.01200   0.00531  -0.0108  0.0896  1.0000  -3.0708   0.0000   0.0000   0.0000   0.2598
   6.000   0.7182   0.01211   0.00543  -0.0103  0.0862  1.0000  -3.1578   0.0000   0.0000   0.0000   0.2588
   6.100   0.7267   0.01221   0.00555  -0.0098  0.0823  1.0000  -3.2459   0.0000   0.0000   0.0000   0.2579
   6.200   0.7347   0.01237   0.00569  -0.0092  0.0773  1.0000  -3.3323   0.0000   0.0000   0.0000   0.2569
   6.300   0.7421   0.01261   0.00588  -0.0085  0.0706  1.0000  -3.4136   0.0000   0.0000   0.0000   0.2557
   6.400   0.7500   0.01278   0.00606  -0.0079  0.0660  1.0000  -3.4978   0.0000   0.0000   0.0000   0.2547
   6.500   0.7585   0.01290   0.00620  -0.0074  0.0620  1.0000  -3.5874   0.0000   0.0000   0.0000   0.2538
   6.600   0.7660   0.01312   0.00641  -0.0067  0.0561  1.0000  -3.6736   0.0000   0.0000   0.0000   0.2528
   6.700   0.7715   0.01359   0.00685  -0.0057  0.0479  1.0000  -3.7335   0.0000   0.0000   0.0000   0.2513
   6.800   0.7802   0.01369   0.00696  -0.0052  0.0458  1.0000  -3.8263   0.0000   0.0000   0.0000   0.2505
   6.900   0.7884   0.01385   0.00714  -0.0046  0.0429  1.0000  -3.9139   0.0000   0.0000   0.0000   0.2496
   7.000   0.7960   0.01406   0.00735  -0.0040  0.0402  1.0000  -3.9989   0.0000   0.0000   0.0000   0.2486
   7.100   0.8032   0.01434   0.00760  -0.0032  0.0377  1.0000  -4.0785   0.0000   0.0000   0.0000   0.2476
   7.200   0.8094   0.01471   0.00799  -0.0023  0.0353  1.0000  -4.1555   0.0000   0.0000   0.0000   0.2463
   7.300   0.8142   0.01525   0.00859  -0.0011  0.0333  1.0000  -4.2228   0.0000   0.0000   0.0000   0.2447
   7.400   0.8177   0.01594   0.00937   0.0003  0.0318  1.0000  -4.2777   0.0000   0.0000   0.0000   0.2429
   7.500   0.8258   0.01611   0.00956   0.0009  0.0316  1.0000  -4.3854   0.0000   0.0000   0.0000   0.2421
   7.600   0.8339   0.01628   0.00975   0.0014  0.0312  1.0000  -4.4949   0.0000   0.0000   0.0000   0.2413
   7.700   0.8420   0.01644   0.00994   0.0020  0.0307  1.0000  -4.6058   0.0000   0.0000   0.0000   0.2406
   7.800   0.8501   0.01661   0.01014   0.0026  0.0301  1.0000  -4.7176   0.0000   0.0000   0.0000   0.2398
   7.900   0.8581   0.01678   0.01033   0.0031  0.0293  1.0000  -4.8303   0.0000   0.0000   0.0000   0.2391
   8.000   0.8661   0.01696   0.01054   0.0037  0.0285  1.0000  -4.9436   0.0000   0.0000   0.0000   0.2384
   8.100   0.8739   0.01714   0.01074   0.0043  0.0276  1.0000  -5.0572   0.0000   0.0000   0.0000   0.2377
   8.200   0.8816   0.01735   0.01097   0.0049  0.0267  1.0000  -5.1695   0.0000   0.0000   0.0000   0.2369
   8.300   0.8889   0.01759   0.01123   0.0055  0.0259  1.0000  -5.2783   0.0000   0.0000   0.0000   0.2361
   8.400   0.8962   0.01783   0.01150   0.0062  0.0251  1.0000  -5.3872   0.0000   0.0000   0.0000   0.2353
   8.500   0.9033   0.01809   0.01178   0.0069  0.0243  1.0000  -5.4959   0.0000   0.0000   0.0000   0.2345
   8.600   0.9099   0.01841   0.01211   0.0076  0.0235  1.0000  -5.5989   0.0000   0.0000   0.0000   0.2336
   8.700   0.9156   0.01883   0.01256   0.0085  0.0226  1.0000  -5.6899   0.0000   0.0000   0.0000   0.2326
   8.800   0.9196   0.01948   0.01325   0.0097  0.0216  1.0000  -5.7571   0.0000   0.0000   0.0000   0.2312
   8.900   0.9210   0.02054   0.01442   0.0112  0.0206  1.0000  -5.7827   0.0000   0.0000   0.0000   0.2295
   9.000   0.9193   0.02227   0.01633   0.0132  0.0197  1.0000  -5.7543   0.0000   0.0000   0.0000   0.2273
   9.100   0.9271   0.02240   0.01649   0.0137  0.0195  1.0000  -5.8711   0.0000   0.0000   0.0000   0.2267
   9.200   0.9345   0.02259   0.01677   0.0144  0.0192  1.0000  -5.9844   0.0000   0.0000   0.0000   0.2260
   9.300   0.9416   0.02282   0.01704   0.0150  0.0189  1.0000  -6.0933   0.0000   0.0000   0.0000   0.2253
   9.400   0.9484   0.02309   0.01735   0.0157  0.0185  1.0000  -6.1985   0.0000   0.0000   0.0000   0.2246
   9.500   0.9550   0.02339   0.01768   0.0164  0.0180  1.0000  -6.3014   0.0000   0.0000   0.0000   0.2238
   9.600   0.9613   0.02369   0.01803   0.0172  0.0175  1.0000  -6.4040   0.0000   0.0000   0.0000   0.2231
   9.700   0.9676   0.02399   0.01836   0.0179  0.0169  1.0000  -6.5080   0.0000   0.0000   0.0000   0.2223
   9.800   0.9738   0.02426   0.01867   0.0186  0.0164  1.0000  -6.6149   0.0000   0.0000   0.0000   0.2216
   9.900   0.9799   0.02452   0.01895   0.0193  0.0159  1.0000  -6.7262   0.0000   0.0000   0.0000   0.2208
  10.000   0.9861   0.02475   0.01920   0.0200  0.0154  1.0000  -6.8415   0.0000   0.0000   0.0000   0.2201
  10.100   0.9921   0.02498   0.01945   0.0207  0.0149  1.0000  -6.9590   0.0000   0.0000   0.0000   0.2194
  10.200   0.9978   0.02524   0.01971   0.0215  0.0145  1.0000  -7.0750   0.0000   0.0000   0.0000   0.2187
  10.300   1.0029   0.02555   0.02005   0.0222  0.0141  1.0000  -7.1848   0.0000   0.0000   0.0000   0.2179
  10.400   1.0072   0.02597   0.02049   0.0231  0.0138  1.0000  -7.2822   0.0000   0.0000   0.0000   0.2170
  10.500   1.0103   0.02653   0.02110   0.0242  0.0135  1.0000  -7.3606   0.0000   0.0000   0.0000   0.2159
  10.600   1.0122   0.02722   0.02185   0.0253  0.0133  1.0000  -7.4223   0.0000   0.0000   0.0000   0.2147
  10.700   1.0129   0.02806   0.02277   0.0266  0.0130  1.0000  -7.4657   0.0000   0.0000   0.0000   0.2133
  10.800   1.0121   0.02906   0.02386   0.0281  0.0128  1.0000  -7.4893   0.0000   0.0000   0.0000   0.2117
  10.900   1.0097   0.03020   0.02510   0.0296  0.0126  1.0000  -7.4941   0.0000   0.0000   0.0000   0.2100
  11.000   1.0054   0.03138   0.02640   0.0314  0.0124  1.0000  -7.4829   0.0000   0.0000   0.0000   0.2080
  11.100   0.9994   0.03254   0.02767   0.0335  0.0123  1.0000  -7.4616   0.0000   0.0000   0.0000   0.2056
  11.200   0.9925   0.03374   0.02899   0.0355  0.0122  1.0000  -7.4334   0.0000   0.0000   0.0000   0.2033
  11.300   0.9851   0.03500   0.03037   0.0374  0.0121  1.0000  -7.4000   0.0000   0.0000   0.0000   0.2010
  11.400   0.9774   0.03632   0.03180   0.0391  0.0120  1.0000  -7.3633   0.0000   0.0000   0.0000   0.1988
  11.500   0.9694   0.03768   0.03327   0.0405  0.0120  1.0000  -7.3247   0.0000   0.0000   0.0000   0.1968
  11.600   0.9612   0.03908   0.03478   0.0418  0.0119  1.0000  -7.2856   0.0000   0.0000   0.0000   0.1950
  11.800   0.9513   0.04132   0.03717   0.0433  0.0118  1.0000  -7.2851   0.0000   0.0000   0.0000   0.1926
  11.900   0.9492   0.04218   0.03809   0.0437  0.0118  1.0000  -7.3195   0.0000   0.0000   0.0000   0.1919
  12.000   0.9466   0.04316   0.03913   0.0440  0.0118  1.0000  -7.3463   0.0000   0.0000   0.0000   0.1913
  12.100   0.9434   0.04426   0.04030   0.0442  0.0117  1.0000  -7.3656   0.0000   0.0000   0.0000   0.1908
  12.200   0.9397   0.04548   0.04158   0.0442  0.0117  1.0000  -7.3772   0.0000   0.0000   0.0000   0.1905
  12.300   0.9355   0.04684   0.04300   0.0440  0.0117  1.0000  -7.3814   0.0000   0.0000   0.0000   0.1903
  12.400   0.9308   0.04834   0.04458   0.0436  0.0117  1.0000  -7.3778   0.0000   0.0000   0.0000   0.1903
  12.500   0.9256   0.05001   0.04632   0.0429  0.0117  1.0000  -7.3656   0.0000   0.0000   0.0000   0.1905
  12.600   0.9198   0.05186   0.04823   0.0421  0.0116  1.0000  -7.3439   0.0000   0.0000   0.0000   0.1910
  12.700   0.9133   0.05390   0.05035   0.0410  0.0116  1.0000  -7.3120   0.0000   0.0000   0.0000   0.1916
  12.800   0.9061   0.05619   0.05271   0.0396  0.0116  1.0000  -7.2679   0.0000   0.0000   0.0000   0.1926
  12.900   0.8982   0.05874   0.05533   0.0380  0.0117  1.0000  -7.2101   0.0000   0.0000   0.0000   0.1938
  13.000   0.8891   0.06163   0.05830   0.0360  0.0117  1.0000  -7.1336   0.0000   0.0000   0.0000   0.1954
  13.100   0.8784   0.06492   0.06166   0.0338  0.0117  1.0000  -7.0323   0.0000   0.0000   0.0000   0.1973
  13.200   0.8650   0.06887   0.06569   0.0310  0.0118  1.0000  -6.8880   0.0000   0.0000   0.0000   0.1997
  14.000   0.6893   0.12719   0.12451  -0.0013  0.0152  1.0000  -3.9411   0.0000   0.0000   0.0000   0.2384
  14.100   0.6738   0.13361   0.13090  -0.0039  0.0157  1.0000  -3.5803   0.0000   0.0000   0.0000   0.2424
  14.200   0.6673   0.13753   0.13480  -0.0055  0.0159  1.0000  -3.4074   0.0000   0.0000   0.0000   0.2448
  14.300   0.6629   0.14084   0.13811  -0.0067  0.0161  1.0000  -3.2782   0.0000   0.0000   0.0000   0.2468
  14.400   0.6597   0.14383   0.14109  -0.0079  0.0163  1.0000  -3.1724   0.0000   0.0000   0.0000   0.2486
  14.500   0.6574   0.14661   0.14386  -0.0090  0.0165  1.0000  -3.0816   0.0000   0.0000   0.0000   0.2503
  14.600   0.6556   0.14922   0.14646  -0.0099  0.0167  1.0000  -3.0014   0.0000   0.0000   0.0000   0.2518
  14.700   0.6543   0.15169   0.14893  -0.0109  0.0169  1.0000  -2.9291   0.0000   0.0000   0.0000   0.2532
  14.800   0.6532   0.15407   0.15130  -0.0117  0.0171  1.0000  -2.8625   0.0000   0.0000   0.0000   0.2545
  14.900   0.6525   0.15637   0.15360  -0.0126  0.0173  1.0000  -2.8002   0.0000   0.0000   0.0000   0.2558
  15.000   0.6520   0.15863   0.15585  -0.0134  0.0175  1.0000  -2.7410   0.0000   0.0000   0.0000   0.2570


