xflr5 v6.61

 Calculated polar for: SD7037-092-88

 1 1 Reynolds number fixed          Mach number fixed         

 xtrf =   1.000 (top)        1.000 (bottom)
 Mach =   0.000     Re =     0.275 e 6     Ncrit =   9.000

  alpha     CL        CD       CDp       Cm    Top Xtr Bot Xtr   Cpmin    Chinge    XCp    
 ------- -------- --------- --------- -------- ------- ------- -------- --------- ---------
 -10.000  -0.3662   0.10775   0.10455  -0.0292  1.0000  0.0275  -1.5910   0.0000   0.0000   0.0000   0.1627
  -9.900  -0.3650   0.10654   0.10335  -0.0296  1.0000  0.0279  -1.5953   0.0000   0.0000   0.0000   0.1616
  -9.800  -0.3638   0.10532   0.10215  -0.0299  1.0000  0.0282  -1.6012   0.0000   0.0000   0.0000   0.1605
  -9.700  -0.3627   0.10410   0.10093  -0.0303  1.0000  0.0286  -1.6086   0.0000   0.0000   0.0000   0.1593
  -9.600  -0.3618   0.10287   0.09972  -0.0306  1.0000  0.0289  -1.6177   0.0000   0.0000   0.0000   0.1582
  -9.500  -0.3610   0.10164   0.09849  -0.0310  1.0000  0.0293  -1.6288   0.0000   0.0000   0.0000   0.1570
  -9.400  -0.3603   0.10040   0.09727  -0.0314  1.0000  0.0297  -1.6420   0.0000   0.0000   0.0000   0.1558
  -9.300  -0.3598   0.09917   0.09605  -0.0319  1.0000  0.0301  -1.6579   0.0000   0.0000   0.0000   0.1545
  -9.200  -0.3595   0.09794   0.09484  -0.0323  1.0000  0.0306  -1.6771   0.0000   0.0000   0.0000   0.1532
  -9.100  -0.3594   0.09671   0.09363  -0.0329  1.0000  0.0310  -1.7003   0.0000   0.0000   0.0000   0.1517
  -9.000  -0.3595   0.09551   0.09244  -0.0336  1.0000  0.0315  -1.7283   0.0000   0.0000   0.0000   0.1500
  -8.900  -0.3597   0.09436   0.09131  -0.0343  1.0000  0.0320  -1.7609   0.0000   0.0000   0.0000   0.1481
  -8.800  -0.3599   0.09332   0.09029  -0.0351  1.0000  0.0325  -1.7948   0.0000   0.0000   0.0000   0.1460
  -8.700  -0.3600   0.09239   0.08938  -0.0358  1.0000  0.0328  -1.8226   0.0000   0.0000   0.0000   0.1441
  -8.600  -0.3598   0.09148   0.08850  -0.0363  1.0000  0.0331  -1.8414   0.0000   0.0000   0.0000   0.1428
  -8.500  -0.3602   0.09051   0.08755  -0.0367  1.0000  0.0332  -1.8601   0.0000   0.0000   0.0000   0.1421
  -8.400  -0.3612   0.08950   0.08656  -0.0369  1.0000  0.0333  -1.8793   0.0000   0.0000   0.0000   0.1419
  -8.300  -0.3629   0.08849   0.08557  -0.0370  1.0000  0.0334  -1.8990   0.0000   0.0000   0.0000   0.1422
  -8.200  -0.3652   0.08749   0.08459  -0.0370  1.0000  0.0334  -1.9191   0.0000   0.0000   0.0000   0.1430
  -8.100  -0.3683   0.08654   0.08366  -0.0368  1.0000  0.0335  -1.9397   0.0000   0.0000   0.0000   0.1445
  -8.000  -0.3722   0.08564   0.08279  -0.0364  1.0000  0.0335  -1.9605   0.0000   0.0000   0.0000   0.1467
  -7.900  -0.3772   0.08481   0.08199  -0.0358  1.0000  0.0335  -1.9816   0.0000   0.0000   0.0000   0.1497
  -7.800  -0.3831   0.08406   0.08127  -0.0351  1.0000  0.0335  -2.0029   0.0000   0.0000   0.0000   0.1533
  -7.700  -0.3899   0.08337   0.08061  -0.0342  1.0000  0.0336  -2.0243   0.0000   0.0000   0.0000   0.1575
  -7.600  -0.3971   0.08268   0.07995  -0.0333  1.0000  0.0336  -2.0463   0.0000   0.0000   0.0000   0.1615
  -7.500  -0.4026   0.08174   0.07903  -0.0330  1.0000  0.0336  -2.0701   0.0000   0.0000   0.0000   0.1636
  -7.400  -0.4068   0.08058   0.07789  -0.0332  1.0000  0.0336  -2.0962   0.0000   0.0000   0.0000   0.1640
  -7.300  -0.4106   0.07933   0.07665  -0.0335  1.0000  0.0336  -2.1239   0.0000   0.0000   0.0000   0.1640
  -7.200  -0.4140   0.07801   0.07534  -0.0340  1.0000  0.0336  -2.1532   0.0000   0.0000   0.0000   0.1637
  -7.100  -0.4170   0.07663   0.07396  -0.0345  1.0000  0.0336  -2.1841   0.0000   0.0000   0.0000   0.1632
  -7.000  -0.4197   0.07520   0.07253  -0.0350  1.0000  0.0337  -2.2159   0.0000   0.0000   0.0000   0.1627
  -6.900  -0.4220   0.07374   0.07107  -0.0354  1.0000  0.0337  -2.2483   0.0000   0.0000   0.0000   0.1623
  -6.800  -0.4241   0.07227   0.06958  -0.0357  1.0000  0.0337  -2.2808   0.0000   0.0000   0.0000   0.1620
  -6.700  -0.4259   0.07080   0.06809  -0.0360  1.0000  0.0337  -2.3131   0.0000   0.0000   0.0000   0.1618
  -6.500  -0.4294   0.06001   0.05720  -0.0440  0.9965  0.0351  -2.5736   0.0000   0.0000   0.0000   0.1437
  -6.400  -0.4215   0.05815   0.05533  -0.0456  0.9949  0.0358  -2.5342   0.0000   0.0000   0.0000   0.1380
  -6.300  -0.4118   0.05711   0.05430  -0.0466  0.9935  0.0364  -2.4635   0.0000   0.0000   0.0000   0.1332
  -6.200  -0.4010   0.05594   0.05312  -0.0480  0.9922  0.0370  -2.4025   0.0000   0.0000   0.0000   0.1267
  -6.100  -0.3892   0.05459   0.05171  -0.0498  0.9910  0.0379  -2.3524   0.0000   0.0000   0.0000   0.1182
  -6.000  -0.3800   0.05324   0.05033  -0.0511  0.9890  0.0387  -2.3187   0.0000   0.0000   0.0000   0.1117
  -5.900  -0.3702   0.05169   0.04874  -0.0528  0.9868  0.0397  -2.2962   0.0000   0.0000   0.0000   0.1037
  -5.800  -0.3592   0.04993   0.04692  -0.0547  0.9845  0.0409  -2.2837   0.0000   0.0000   0.0000   0.0939
  -5.700  -0.3472   0.04799   0.04489  -0.0570  0.9823  0.0423  -2.2812   0.0000   0.0000   0.0000   0.0821
  -5.600  -0.3337   0.04593   0.04271  -0.0594  0.9803  0.0441  -2.2896   0.0000   0.0000   0.0000   0.0682
  -5.500  -0.3171   0.04425   0.04085  -0.0617  0.9785  0.0470  -2.3078   0.0000   0.0000   0.0000   0.0511
  -5.400  -0.2942   0.04561   0.04197  -0.0631  0.9769  0.0494  -2.2526   0.0000   0.0000   0.0000   0.0311
  -5.300  -0.2794   0.04439   0.04058  -0.0649  0.9755  0.0496  -2.2329   0.0000   0.0000   0.0000   0.0131
  -5.200  -0.2779   0.03639   0.03232  -0.0691  0.9739  0.0525  -2.3818   0.0000   0.0000   0.0000  -0.0033
  -5.100  -0.2648   0.03551   0.03153  -0.0702  0.9731  0.0542  -2.2753   0.0000   0.0000   0.0000  -0.0201
  -5.000  -0.2534   0.03496   0.03101  -0.0708  0.9714  0.0558  -2.1847   0.0000   0.0000   0.0000  -0.0345
  -4.900  -0.2458   0.03431   0.03034  -0.0706  0.9681  0.0573  -2.1271   0.0000   0.0000   0.0000  -0.0423
  -4.800  -0.2348   0.03343   0.02940  -0.0712  0.9655  0.0591  -2.0753   0.0000   0.0000   0.0000  -0.0580
  -4.700  -0.2223   0.03238   0.02824  -0.0719  0.9633  0.0609  -2.0330   0.0000   0.0000   0.0000  -0.0787
  -4.400  -0.1762   0.02428   0.01878  -0.0733  0.9580  0.0345  -2.3778   0.0000   0.0000   0.0000  -0.1730
  -4.300  -0.1633   0.02199   0.01635  -0.0740  0.9568  0.0311  -2.3881   0.0000   0.0000   0.0000  -0.2109
  -4.200  -0.1488   0.02047   0.01460  -0.0747  0.9557  0.0296  -2.3755   0.0000   0.0000   0.0000  -0.2606
  -4.100  -0.1336   0.01918   0.01311  -0.0754  0.9547  0.0283  -2.3563   0.0000   0.0000   0.0000  -0.3233
  -4.000  -0.1180   0.01806   0.01179  -0.0761  0.9538  0.0272  -2.3309   0.0000   0.0000   0.0000  -0.4050
  -3.900  -0.1019   0.01718   0.01075  -0.0769  0.9530  0.0264  -2.3162   0.0000   0.0000   0.0000  -0.5153
  -3.800  -0.0856   0.01646   0.00989  -0.0777  0.9522  0.0259  -2.2971   0.0000   0.0000   0.0000  -0.6711
  -3.700  -0.0690   0.01586   0.00922  -0.0787  0.9515  0.0257  -2.2648   0.0000   0.0000   0.0000  -0.9052
  -3.600  -0.0524   0.01534   0.00864  -0.0797  0.9508  0.0256  -2.2247   0.0000   0.0000   0.0000  -1.2919
  -3.500  -0.0397   0.01493   0.00818  -0.0799  0.9488  0.0257  -2.1872   0.0000   0.0000   0.0000  -1.7878
  -3.400  -0.0339   0.01462   0.00785  -0.0787  0.9441  0.0258  -2.1598   0.0000   0.0000   0.0000  -2.1018
  -3.300  -0.0214   0.01425   0.00746  -0.0789  0.9415  0.0261  -2.1189   0.0000   0.0000   0.0000  -3.4824
  -3.200  -0.0074   0.01389   0.00707  -0.0794  0.9394  0.0265  -2.0733   0.0000   0.0000   0.0000  -10.5967
  -3.100   0.0071   0.01356   0.00672  -0.0800  0.9375  0.0272  -2.0253   0.0000   0.0000   0.0000  11.5686
  -3.000   0.0220   0.01326   0.00640  -0.0806  0.9358  0.0281  -1.9770   0.0000   0.0000   0.0000   3.9603
  -2.900   0.0372   0.01297   0.00609  -0.0813  0.9341  0.0295  -1.9303   0.0000   0.0000   0.0000   2.4599
  -2.800   0.0525   0.01270   0.00579  -0.0820  0.9326  0.0314  -1.8865   0.0000   0.0000   0.0000   1.8263
  -2.700   0.0679   0.01248   0.00554  -0.0827  0.9311  0.0335  -1.8412   0.0000   0.0000   0.0000   1.4788
  -2.600   0.0829   0.01202   0.00506  -0.0833  0.9297  0.0421  -1.8335   0.0000   0.0000   0.0000   1.2643
  -2.500   0.0972   0.01138   0.00471  -0.0840  0.9282  0.1067  -1.8292   0.0000   0.0000   0.0000   1.1214
  -2.400   0.1114   0.01094   0.00458  -0.0848  0.9268  0.1828  -1.7622   0.0000   0.0000   0.0000   1.0171
  -2.300   0.1180   0.01072   0.00453  -0.0840  0.9219  0.2248  -1.7076   0.0000   0.0000   0.0000   0.9669
  -2.200   0.1276   0.01047   0.00445  -0.0837  0.9179  0.2726  -1.6400   0.0000   0.0000   0.0000   0.9105
  -2.100   0.1387   0.01021   0.00437  -0.0837  0.9146  0.3261  -1.5657   0.0000   0.0000   0.0000   0.8574
  -2.000   0.1503   0.00992   0.00428  -0.0838  0.9118  0.3865  -1.4887   0.0000   0.0000   0.0000   0.8109
  -1.900   0.1625   0.00965   0.00420  -0.0840  0.9092  0.4417  -1.4094   0.0000   0.0000   0.0000   0.7697
  -1.800   0.1746   0.00938   0.00412  -0.0841  0.9068  0.5001  -1.3302   0.0000   0.0000   0.0000   0.7339
  -1.700   0.1859   0.00907   0.00407  -0.0840  0.9046  0.5758  -1.2538   0.0000   0.0000   0.0000   0.7037
  -1.600   0.1962   0.00878   0.00406  -0.0835  0.9024  0.6532  -1.1806   0.0000   0.0000   0.0000   0.6773
  -1.500   0.2019   0.00861   0.00408  -0.0822  0.8972  0.7084  -1.1238   0.0000   0.0000   0.0000   0.6584
  -1.400   0.2094   0.00845   0.00407  -0.0810  0.8926  0.7568  -1.0611   0.0000   0.0000   0.0000   0.6383
  -1.300   0.2179   0.00830   0.00403  -0.0801  0.8887  0.7960  -0.9947   0.0000   0.0000   0.0000   0.6185
  -1.200   0.2272   0.00817   0.00395  -0.0792  0.8853  0.8298  -0.9235   0.0000   0.0000   0.0000   0.5995
  -1.100   0.2365   0.00804   0.00388  -0.0783  0.8823  0.8634  -0.8574   0.0000   0.0000   0.0000   0.5817
  -1.000   0.2473   0.00793   0.00380  -0.0777  0.8797  0.8977  -0.7876   0.0000   0.0000   0.0000   0.5645
  -0.900   0.2614   0.00785   0.00373  -0.0779  0.8764  0.9289  -0.7088   0.0000   0.0000   0.0000   0.5481
  -0.800   0.2790   0.00778   0.00365  -0.0790  0.8721  0.9532  -0.6220   0.0000   0.0000   0.0000   0.5331
  -0.700   0.2984   0.00771   0.00354  -0.0805  0.8682  0.9725  -0.5316   0.0000   0.0000   0.0000   0.5197
  -0.600   0.3202   0.00762   0.00341  -0.0826  0.8647  0.9880  -0.5443   0.0000   0.0000   0.0000   0.5077
  -0.500   0.3406   0.00754   0.00328  -0.0844  0.8611  1.0000  -0.5606   0.0000   0.0000   0.0000   0.4975
  -0.400   0.3505   0.00749   0.00318  -0.0840  0.8568  1.0000  -0.5710   0.0000   0.0000   0.0000   0.4892
  -0.300   0.3599   0.00747   0.00311  -0.0836  0.8518  1.0000  -0.5810   0.0000   0.0000   0.0000   0.4816
  -0.200   0.3683   0.00747   0.00308  -0.0830  0.8451  1.0000  -0.5905   0.0000   0.0000   0.0000   0.4745
  -0.100   0.3778   0.00745   0.00301  -0.0825  0.8392  1.0000  -0.6006   0.0000   0.0000   0.0000   0.4676
   0.000   0.3880   0.00741   0.00292  -0.0822  0.8341  1.0000  -0.6117   0.0000   0.0000   0.0000   0.4608
   0.100   0.3982   0.00740   0.00285  -0.0818  0.8289  1.0000  -0.6235   0.0000   0.0000   0.0000   0.4544
   0.200   0.4074   0.00741   0.00283  -0.0814  0.8217  1.0000  -0.6345   0.0000   0.0000   0.0000   0.4486
   0.300   0.4174   0.00740   0.00278  -0.0810  0.8152  1.0000  -0.6461   0.0000   0.0000   0.0000   0.4429
   0.400   0.4278   0.00739   0.00271  -0.0807  0.8095  1.0000  -0.6581   0.0000   0.0000   0.0000   0.4374
   0.500   0.4380   0.00739   0.00267  -0.0804  0.8030  1.0000  -0.6699   0.0000   0.0000   0.0000   0.4322
   0.600   0.4479   0.00740   0.00265  -0.0801  0.7954  1.0000  -0.6822   0.0000   0.0000   0.0000   0.4273
   0.700   0.4582   0.00741   0.00260  -0.0798  0.7885  1.0000  -0.6955   0.0000   0.0000   0.0000   0.4225
   0.800   0.4688   0.00742   0.00255  -0.0795  0.7823  1.0000  -0.7090   0.0000   0.0000   0.0000   0.4179
   0.900   0.4787   0.00744   0.00255  -0.0792  0.7743  1.0000  -0.7219   0.0000   0.0000   0.0000   0.4137
   1.000   0.4890   0.00746   0.00252  -0.0789  0.7665  1.0000  -0.7352   0.0000   0.0000   0.0000   0.4096
   1.100   0.4995   0.00749   0.00248  -0.0787  0.7595  1.0000  -0.7488   0.0000   0.0000   0.0000   0.4055
   1.200   0.5096   0.00753   0.00249  -0.0784  0.7513  1.0000  -0.7623   0.0000   0.0000   0.0000   0.4018
   1.300   0.5199   0.00756   0.00248  -0.0781  0.7432  1.0000  -0.7772   0.0000   0.0000   0.0000   0.3982
   1.400   0.5304   0.00761   0.00245  -0.0779  0.7358  1.0000  -0.7925   0.0000   0.0000   0.0000   0.3946
   1.500   0.5406   0.00765   0.00247  -0.0776  0.7274  1.0000  -0.8074   0.0000   0.0000   0.0000   0.3913
   1.600   0.5508   0.00769   0.00247  -0.0774  0.7190  1.0000  -0.8225   0.0000   0.0000   0.0000   0.3881
   1.700   0.5612   0.00776   0.00246  -0.0771  0.7113  1.0000  -0.8379   0.0000   0.0000   0.0000   0.3850
   1.800   0.5715   0.00780   0.00248  -0.0769  0.7027  1.0000  -0.8530   0.0000   0.0000   0.0000   0.3820
   1.900   0.5818   0.00786   0.00249  -0.0766  0.6941  1.0000  -0.8683   0.0000   0.0000   0.0000   0.3791
   2.000   0.5921   0.00794   0.00249  -0.0764  0.6862  1.0000  -0.8846   0.0000   0.0000   0.0000   0.3763
   2.100   0.6023   0.00798   0.00253  -0.0762  0.6774  1.0000  -0.9019   0.0000   0.0000   0.0000   0.3737
   2.200   0.6126   0.00805   0.00255  -0.0759  0.6687  1.0000  -0.9193   0.0000   0.0000   0.0000   0.3711
   2.300   0.6228   0.00813   0.00256  -0.0757  0.6607  1.0000  -0.9368   0.0000   0.0000   0.0000   0.3686
   2.400   0.6331   0.00819   0.00260  -0.0755  0.6518  1.0000  -0.9543   0.0000   0.0000   0.0000   0.3662
   2.500   0.6433   0.00827   0.00263  -0.0752  0.6430  1.0000  -0.9718   0.0000   0.0000   0.0000   0.3638
   2.600   0.6535   0.00835   0.00268  -0.0750  0.6346  1.0000  -0.9895   0.0000   0.0000   0.0000   0.3616
   2.700   0.6638   0.00841   0.00272  -0.0748  0.6256  1.0000  -1.0072   0.0000   0.0000   0.0000   0.3594
   2.800   0.6739   0.00850   0.00275  -0.0745  0.6170  1.0000  -1.0267   0.0000   0.0000   0.0000   0.3572
   2.900   0.6841   0.00858   0.00280  -0.0743  0.6086  1.0000  -1.0471   0.0000   0.0000   0.0000   0.3552
   3.000   0.6943   0.00865   0.00284  -0.0741  0.5995  1.0000  -1.0675   0.0000   0.0000   0.0000   0.3532
   3.100   0.7043   0.00876   0.00288  -0.0738  0.5909  1.0000  -1.0879   0.0000   0.0000   0.0000   0.3512
   3.200   0.7146   0.00883   0.00293  -0.0736  0.5818  1.0000  -1.1086   0.0000   0.0000   0.0000   0.3494
   3.300   0.7246   0.00892   0.00298  -0.0734  0.5725  1.0000  -1.1291   0.0000   0.0000   0.0000   0.3475
   3.400   0.7346   0.00902   0.00303  -0.0732  0.5641  1.0000  -1.1497   0.0000   0.0000   0.0000   0.3457
   3.500   0.7449   0.00909   0.00309  -0.0730  0.5552  1.0000  -1.1706   0.0000   0.0000   0.0000   0.3440
   3.600   0.7549   0.00920   0.00315  -0.0727  0.5464  1.0000  -1.1930   0.0000   0.0000   0.0000   0.3423
   3.700   0.7649   0.00929   0.00321  -0.0725  0.5379  1.0000  -1.2172   0.0000   0.0000   0.0000   0.3406
   3.800   0.7750   0.00938   0.00327  -0.0723  0.5284  1.0000  -1.2415   0.0000   0.0000   0.0000   0.3390
   3.900   0.7848   0.00950   0.00333  -0.0720  0.5192  1.0000  -1.2655   0.0000   0.0000   0.0000   0.3374
   4.000   0.7949   0.00959   0.00341  -0.0718  0.5100  1.0000  -1.2901   0.0000   0.0000   0.0000   0.3359
   4.100   0.8048   0.00969   0.00351  -0.0715  0.5004  1.0000  -1.3146   0.0000   0.0000   0.0000   0.3344
   4.200   0.8145   0.00982   0.00358  -0.0713  0.4918  1.0000  -1.3389   0.0000   0.0000   0.0000   0.3329
   4.300   0.8247   0.00990   0.00367  -0.0711  0.4829  1.0000  -1.3639   0.0000   0.0000   0.0000   0.3315
   4.400   0.8345   0.01003   0.00374  -0.0708  0.4737  1.0000  -1.3885   0.0000   0.0000   0.0000   0.3301
   4.500   0.8443   0.01014   0.00383  -0.0706  0.4649  1.0000  -1.4192   0.0000   0.0000   0.0000   0.3287
   4.600   0.8542   0.01025   0.00391  -0.0704  0.4551  1.0000  -1.4537   0.0000   0.0000   0.0000   0.3274
   4.800   0.8737   0.01049   0.00409  -0.0699  0.4361  1.0000  -1.5229   0.0000   0.0000   0.0000   0.3248
   4.900   0.8833   0.01062   0.00418  -0.0696  0.4264  1.0000  -1.5575   0.0000   0.0000   0.0000   0.3235
   5.000   0.8929   0.01076   0.00428  -0.0693  0.4178  1.0000  -1.5924   0.0000   0.0000   0.0000   0.3222
   5.100   0.9028   0.01087   0.00438  -0.0691  0.4086  1.0000  -1.6280   0.0000   0.0000   0.0000   0.3210
   5.200   0.9121   0.01103   0.00449  -0.0688  0.3994  1.0000  -1.6627   0.0000   0.0000   0.0000   0.3198
   5.300   0.9220   0.01114   0.00459  -0.0686  0.3903  1.0000  -1.6986   0.0000   0.0000   0.0000   0.3187
   5.400   0.9315   0.01128   0.00470  -0.0683  0.3804  1.0000  -1.7366   0.0000   0.0000   0.0000   0.3175
   5.500   0.9407   0.01145   0.00486  -0.0680  0.3711  1.0000  -1.7768   0.0000   0.0000   0.0000   0.3164
   5.600   0.9505   0.01157   0.00497  -0.0678  0.3614  1.0000  -1.8366   0.0000   0.0000   0.0000   0.3153
   5.700   0.9596   0.01175   0.00510  -0.0674  0.3520  1.0000  -1.9116   0.0000   0.0000   0.0000   0.3141
   5.800   0.9693   0.01188   0.00522  -0.0672  0.3435  1.0000  -1.9904   0.0000   0.0000   0.0000   0.3131
   5.900   0.9788   0.01202   0.00535  -0.0669  0.3345  1.0000  -2.0696   0.0000   0.0000   0.0000   0.3120
   6.000   0.9876   0.01223   0.00550  -0.0666  0.3259  1.0000  -2.1471   0.0000   0.0000   0.0000   0.3109
   6.100   0.9975   0.01234   0.00563  -0.0664  0.3173  1.0000  -2.2300   0.0000   0.0000   0.0000   0.3100
   6.200   1.0066   0.01252   0.00577  -0.0661  0.3080  1.0000  -2.3107   0.0000   0.0000   0.0000   0.3089
   6.300   1.0156   0.01270   0.00592  -0.0657  0.2989  1.0000  -2.3919   0.0000   0.0000   0.0000   0.3079
   6.400   1.0250   0.01285   0.00606  -0.0655  0.2891  1.0000  -2.4757   0.0000   0.0000   0.0000   0.3069
   6.500   1.0333   0.01308   0.00621  -0.0651  0.2794  1.0000  -2.5562   0.0000   0.0000   0.0000   0.3059
   6.600   1.0430   0.01321   0.00636  -0.0648  0.2705  1.0000  -2.6426   0.0000   0.0000   0.0000   0.3050
   6.700   1.0518   0.01340   0.00652  -0.0645  0.2614  1.0000  -2.7267   0.0000   0.0000   0.0000   0.3040
   6.800   1.0605   0.01362   0.00669  -0.0641  0.2528  1.0000  -2.8106   0.0000   0.0000   0.0000   0.3031
   6.900   1.0699   0.01377   0.00684  -0.0639  0.2438  1.0000  -2.8986   0.0000   0.0000   0.0000   0.3022
   7.000   1.0782   0.01400   0.00705  -0.0635  0.2347  1.0000  -2.9857   0.0000   0.0000   0.0000   0.3012
   7.100   1.0873   0.01418   0.00722  -0.0632  0.2264  1.0000  -3.0748   0.0000   0.0000   0.0000   0.3004
   7.200   1.0961   0.01436   0.00739  -0.0629  0.2172  1.0000  -3.1632   0.0000   0.0000   0.0000   0.2995
   7.300   1.1039   0.01464   0.00759  -0.0624  0.2082  1.0000  -3.2475   0.0000   0.0000   0.0000   0.2985
   7.400   1.1135   0.01477   0.00775  -0.0622  0.2002  1.0000  -3.3401   0.0000   0.0000   0.0000   0.2977
   7.500   1.1218   0.01500   0.00794  -0.0618  0.1917  1.0000  -3.4281   0.0000   0.0000   0.0000   0.2968
   7.600   1.1299   0.01525   0.00815  -0.0614  0.1842  1.0000  -3.5152   0.0000   0.0000   0.0000   0.2959
   7.700   1.1392   0.01540   0.00833  -0.0611  0.1775  1.0000  -3.6085   0.0000   0.0000   0.0000   0.2951
   7.800   1.1476   0.01563   0.00853  -0.0607  0.1701  1.0000  -3.6980   0.0000   0.0000   0.0000   0.2943
   7.900   1.1551   0.01593   0.00877  -0.0603  0.1629  1.0000  -3.7836   0.0000   0.0000   0.0000   0.2934
   8.000   1.1644   0.01607   0.00896  -0.0600  0.1573  1.0000  -3.8789   0.0000   0.0000   0.0000   0.2926
   8.100   1.1729   0.01628   0.00916  -0.0596  0.1504  1.0000  -3.9705   0.0000   0.0000   0.0000   0.2918
   8.200   1.1801   0.01659   0.00941  -0.0591  0.1428  1.0000  -4.0565   0.0000   0.0000   0.0000   0.2909
   8.300   1.1889   0.01677   0.00961  -0.0588  0.1364  1.0000  -4.1503   0.0000   0.0000   0.0000   0.2901
   8.400   1.1971   0.01699   0.00982  -0.0584  0.1290  1.0000  -4.2426   0.0000   0.0000   0.0000   0.2894
   8.500   1.2042   0.01731   0.01008  -0.0579  0.1214  1.0000  -4.3286   0.0000   0.0000   0.0000   0.2885
   8.600   1.2126   0.01752   0.01030  -0.0575  0.1157  1.0000  -4.4211   0.0000   0.0000   0.0000   0.2877
   8.700   1.2206   0.01775   0.01056  -0.0571  0.1089  1.0000  -4.5117   0.0000   0.0000   0.0000   0.2869
   8.800   1.2275   0.01808   0.01083  -0.0566  0.1014  1.0000  -4.5969   0.0000   0.0000   0.0000   0.2861
   8.900   1.2353   0.01832   0.01108  -0.0561  0.0953  1.0000  -4.6865   0.0000   0.0000   0.0000   0.2853
   9.000   1.2430   0.01857   0.01133  -0.0557  0.0892  1.0000  -4.7753   0.0000   0.0000   0.0000   0.2845
   9.100   1.2496   0.01890   0.01162  -0.0551  0.0826  1.0000  -4.8573   0.0000   0.0000   0.0000   0.2837
   9.200   1.2567   0.01920   0.01192  -0.0545  0.0766  1.0000  -4.9397   0.0000   0.0000   0.0000   0.2829
   9.300   1.2639   0.01948   0.01220  -0.0540  0.0699  1.0000  -5.0212   0.0000   0.0000   0.0000   0.2821
   9.400   1.2689   0.01994   0.01257  -0.0532  0.0611  1.0000  -5.0886   0.0000   0.0000   0.0000   0.2812
   9.500   1.2749   0.02032   0.01294  -0.0525  0.0524  1.0000  -5.1537   0.0000   0.0000   0.0000   0.2803
   9.600   1.2781   0.02094   0.01346  -0.0515  0.0415  1.0000  -5.1932   0.0000   0.0000   0.0000   0.2792
   9.700   1.2795   0.02169   0.01411  -0.0502  0.0329  1.0000  -5.2137   0.0000   0.0000   0.0000   0.2780
   9.800   1.2822   0.02228   0.01473  -0.0489  0.0287  1.0000  -5.2337   0.0000   0.0000   0.0000   0.2768
   9.900   1.2860   0.02272   0.01521  -0.0478  0.0264  1.0000  -5.2752   0.0000   0.0000   0.0000   0.2757
  10.000   1.2889   0.02319   0.01570  -0.0466  0.0248  1.0000  -5.3173   0.0000   0.0000   0.0000   0.2746
  10.100   1.2910   0.02371   0.01622  -0.0453  0.0235  1.0000  -5.3648   0.0000   0.0000   0.0000   0.2734
  10.200   1.2918   0.02430   0.01684  -0.0439  0.0223  1.0000  -5.4121   0.0000   0.0000   0.0000   0.2721
  10.300   1.2909   0.02499   0.01759  -0.0422  0.0213  1.0000  -5.4444   0.0000   0.0000   0.0000   0.2707
  10.400   1.2886   0.02578   0.01845  -0.0405  0.0206  1.0000  -5.4655   0.0000   0.0000   0.0000   0.2692
  10.500   1.2907   0.02631   0.01902  -0.0393  0.0203  1.0000  -5.5241   0.0000   0.0000   0.0000   0.2682
  10.600   1.2938   0.02678   0.01954  -0.0383  0.0200  1.0000  -5.5910   0.0000   0.0000   0.0000   0.2672
  10.700   1.2963   0.02729   0.02011  -0.0373  0.0197  1.0000  -5.6544   0.0000   0.0000   0.0000   0.2662
  10.800   1.2984   0.02783   0.02071  -0.0362  0.0194  1.0000  -5.7149   0.0000   0.0000   0.0000   0.2651
  10.900   1.3003   0.02840   0.02134  -0.0352  0.0192  1.0000  -5.7739   0.0000   0.0000   0.0000   0.2642
  11.000   1.3019   0.02901   0.02200  -0.0342  0.0189  1.0000  -5.8313   0.0000   0.0000   0.0000   0.2632
  11.100   1.3034   0.02964   0.02268  -0.0332  0.0187  1.0000  -5.8873   0.0000   0.0000   0.0000   0.2622
  11.200   1.3048   0.03029   0.02338  -0.0322  0.0184  1.0000  -5.9429   0.0000   0.0000   0.0000   0.2613
  11.300   1.3061   0.03096   0.02415  -0.0313  0.0182  1.0000  -5.9956   0.0000   0.0000   0.0000   0.2604
  11.400   1.3072   0.03167   0.02491  -0.0303  0.0181  1.0000  -6.0481   0.0000   0.0000   0.0000   0.2595
  11.500   1.3083   0.03239   0.02569  -0.0295  0.0179  1.0000  -6.1010   0.0000   0.0000   0.0000   0.2587
  11.600   1.3093   0.03315   0.02650  -0.0286  0.0177  1.0000  -6.1526   0.0000   0.0000   0.0000   0.2579
  11.700   1.3101   0.03392   0.02733  -0.0278  0.0176  1.0000  -6.2038   0.0000   0.0000   0.0000   0.2571
  11.800   1.3111   0.03472   0.02819  -0.0270  0.0174  1.0000  -6.2547   0.0000   0.0000   0.0000   0.2563
  11.900   1.3118   0.03556   0.02908  -0.0263  0.0173  1.0000  -6.3044   0.0000   0.0000   0.0000   0.2556
  12.000   1.3126   0.03641   0.02999  -0.0256  0.0172  1.0000  -6.3536   0.0000   0.0000   0.0000   0.2549
  12.100   1.3132   0.03730   0.03093  -0.0249  0.0171  1.0000  -6.4020   0.0000   0.0000   0.0000   0.2542
  12.200   1.3138   0.03821   0.03190  -0.0243  0.0170  1.0000  -6.4492   0.0000   0.0000   0.0000   0.2535
  12.300   1.3144   0.03914   0.03289  -0.0237  0.0169  1.0000  -6.4959   0.0000   0.0000   0.0000   0.2529
  12.400   1.3149   0.04011   0.03393  -0.0231  0.0169  1.0000  -6.5411   0.0000   0.0000   0.0000   0.2523
  12.500   1.3153   0.04111   0.03499  -0.0226  0.0168  1.0000  -6.5854   0.0000   0.0000   0.0000   0.2517
  12.600   1.3157   0.04212   0.03607  -0.0222  0.0167  1.0000  -6.6301   0.0000   0.0000   0.0000   0.2512
  12.700   1.3160   0.04316   0.03717  -0.0217  0.0166  1.0000  -6.6745   0.0000   0.0000   0.0000   0.2507
  12.800   1.3162   0.04421   0.03829  -0.0213  0.0166  1.0000  -6.7193   0.0000   0.0000   0.0000   0.2502
  12.900   1.3163   0.04529   0.03942  -0.0210  0.0165  1.0000  -6.7637   0.0000   0.0000   0.0000   0.2498
  13.000   1.3162   0.04639   0.04059  -0.0207  0.0164  1.0000  -6.8076   0.0000   0.0000   0.0000   0.2494
  13.100   1.3161   0.04751   0.04177  -0.0204  0.0162  1.0000  -6.8517   0.0000   0.0000   0.0000   0.2490
  13.200   1.3157   0.04866   0.04298  -0.0202  0.0161  1.0000  -6.8950   0.0000   0.0000   0.0000   0.2487
  13.300   1.3153   0.04984   0.04422  -0.0201  0.0160  1.0000  -6.9383   0.0000   0.0000   0.0000   0.2484
  13.400   1.3147   0.05105   0.04549  -0.0200  0.0159  1.0000  -6.9808   0.0000   0.0000   0.0000   0.2482
  13.500   1.3139   0.05230   0.04679  -0.0200  0.0158  1.0000  -7.0222   0.0000   0.0000   0.0000   0.2479
  13.600   1.3129   0.05359   0.04814  -0.0200  0.0157  1.0000  -7.0624   0.0000   0.0000   0.0000   0.2478
  13.700   1.3117   0.05492   0.04953  -0.0200  0.0156  1.0000  -7.1005   0.0000   0.0000   0.0000   0.2477
  13.800   1.3104   0.05630   0.05096  -0.0201  0.0154  1.0000  -7.1372   0.0000   0.0000   0.0000   0.2476
  13.900   1.3086   0.05773   0.05245  -0.0203  0.0153  1.0000  -7.1704   0.0000   0.0000   0.0000   0.2475
  14.000   1.3068   0.05921   0.05399  -0.0205  0.0152  1.0000  -7.2018   0.0000   0.0000   0.0000   0.2475
  14.100   1.3046   0.06077   0.05561  -0.0208  0.0151  1.0000  -7.2294   0.0000   0.0000   0.0000   0.2476
  14.200   1.3023   0.06238   0.05728  -0.0211  0.0150  1.0000  -7.2543   0.0000   0.0000   0.0000   0.2477
  14.300   1.2997   0.06406   0.05903  -0.0215  0.0150  1.0000  -7.2750   0.0000   0.0000   0.0000   0.2478
  14.400   1.2968   0.06581   0.06084  -0.0220  0.0149  1.0000  -7.2924   0.0000   0.0000   0.0000   0.2480
  14.500   1.2937   0.06764   0.06274  -0.0225  0.0148  1.0000  -7.3056   0.0000   0.0000   0.0000   0.2483
  14.600   1.2903   0.06953   0.06470  -0.0231  0.0148  1.0000  -7.3152   0.0000   0.0000   0.0000   0.2486
  14.700   1.2867   0.07150   0.06674  -0.0238  0.0147  1.0000  -7.3209   0.0000   0.0000   0.0000   0.2490
  14.800   1.2829   0.07354   0.06885  -0.0245  0.0147  1.0000  -7.3230   0.0000   0.0000   0.0000   0.2494
  14.900   1.2788   0.07565   0.07104  -0.0253  0.0147  1.0000  -7.3208   0.0000   0.0000   0.0000   0.2499
  15.000   1.2744   0.07783   0.07330  -0.0262  0.0147  1.0000  -7.3154   0.0000   0.0000   0.0000   0.2505


