xflr5 v6.61

 Calculated polar for: SD7037-092-88

 1 1 Reynolds number fixed          Mach number fixed         

 xtrf =   1.000 (top)        1.000 (bottom)
 Mach =   0.000     Re =     0.400 e 6     Ncrit =   9.000

  alpha     CL        CD       CDp       Cm    Top Xtr Bot Xtr   Cpmin    Chinge    XCp    
 ------- -------- --------- --------- -------- ------- ------- -------- --------- ---------
 -10.000  -0.3681   0.10611   0.10344  -0.0292  1.0000  0.0194  -1.6637   0.0000   0.0000   0.0000   0.1631
  -9.900  -0.3670   0.10483   0.10218  -0.0296  1.0000  0.0196  -1.6731   0.0000   0.0000   0.0000   0.1619
  -9.800  -0.3660   0.10355   0.10090  -0.0300  1.0000  0.0198  -1.6839   0.0000   0.0000   0.0000   0.1607
  -9.700  -0.3651   0.10225   0.09961  -0.0304  1.0000  0.0200  -1.6964   0.0000   0.0000   0.0000   0.1594
  -9.600  -0.3643   0.10095   0.09832  -0.0308  1.0000  0.0203  -1.7108   0.0000   0.0000   0.0000   0.1582
  -9.500  -0.3636   0.09963   0.09702  -0.0312  1.0000  0.0206  -1.7277   0.0000   0.0000   0.0000   0.1569
  -9.400  -0.3632   0.09831   0.09570  -0.0317  1.0000  0.0208  -1.7478   0.0000   0.0000   0.0000   0.1556
  -9.300  -0.3628   0.09697   0.09438  -0.0322  1.0000  0.0211  -1.7722   0.0000   0.0000   0.0000   0.1541
  -9.200  -0.3627   0.09561   0.09303  -0.0328  1.0000  0.0215  -1.8025   0.0000   0.0000   0.0000   0.1525
  -9.100  -0.3627   0.09424   0.09167  -0.0336  1.0000  0.0218  -1.8400   0.0000   0.0000   0.0000   0.1507
  -9.000  -0.3626   0.09290   0.09035  -0.0343  1.0000  0.0222  -1.8820   0.0000   0.0000   0.0000   0.1485
  -8.900  -0.3626   0.09164   0.08911  -0.0351  1.0000  0.0225  -1.9227   0.0000   0.0000   0.0000   0.1464
  -8.800  -0.3619   0.09053   0.08801  -0.0356  1.0000  0.0226  -1.9449   0.0000   0.0000   0.0000   0.1449
  -8.700  -0.3619   0.08939   0.08688  -0.0360  1.0000  0.0228  -1.9663   0.0000   0.0000   0.0000   0.1439
  -8.600  -0.3623   0.08822   0.08573  -0.0363  1.0000  0.0228  -1.9880   0.0000   0.0000   0.0000   0.1433
  -8.500  -0.3633   0.08706   0.08459  -0.0365  1.0000  0.0229  -2.0100   0.0000   0.0000   0.0000   0.1431
  -8.400  -0.3649   0.08592   0.08347  -0.0366  1.0000  0.0229  -2.0326   0.0000   0.0000   0.0000   0.1435
  -8.300  -0.3672   0.08482   0.08239  -0.0365  1.0000  0.0230  -2.0555   0.0000   0.0000   0.0000   0.1444
  -8.200  -0.3702   0.08378   0.08137  -0.0363  1.0000  0.0230  -2.0787   0.0000   0.0000   0.0000   0.1460
  -8.100  -0.3742   0.08281   0.08043  -0.0359  1.0000  0.0230  -2.1021   0.0000   0.0000   0.0000   0.1483
  -8.000  -0.3790   0.08193   0.07956  -0.0353  1.0000  0.0230  -2.1256   0.0000   0.0000   0.0000   0.1514
  -7.900  -0.3848   0.08112   0.07879  -0.0344  1.0000  0.0230  -2.1490   0.0000   0.0000   0.0000   0.1551
  -7.800  -0.3915   0.08041   0.07809  -0.0334  1.0000  0.0230  -2.1723   0.0000   0.0000   0.0000   0.1594
  -7.700  -0.3992   0.07977   0.07749  -0.0322  1.0000  0.0230  -2.1955   0.0000   0.0000   0.0000   0.1642
  -7.600  -0.4077   0.07920   0.07693  -0.0310  1.0000  0.0230  -2.2186   0.0000   0.0000   0.0000   0.1692
  -7.500  -0.4157   0.07851   0.07628  -0.0300  1.0000  0.0230  -2.2429   0.0000   0.0000   0.0000   0.1733
  -6.900  -0.3964   0.05634   0.05392  -0.0559  0.9912  0.0240  -2.8077   0.0000   0.0000   0.0000   0.1042
  -6.800  -0.3900   0.05451   0.05207  -0.0577  0.9895  0.0244  -2.7801   0.0000   0.0000   0.0000   0.0974
  -6.700  -0.3826   0.05359   0.05114  -0.0585  0.9877  0.0247  -2.7110   0.0000   0.0000   0.0000   0.0925
  -6.600  -0.3741   0.05250   0.05003  -0.0597  0.9859  0.0251  -2.6508   0.0000   0.0000   0.0000   0.0860
  -6.500  -0.3647   0.05123   0.04873  -0.0611  0.9840  0.0255  -2.6006   0.0000   0.0000   0.0000   0.0778
  -6.400  -0.3546   0.04978   0.04724  -0.0629  0.9822  0.0260  -2.5610   0.0000   0.0000   0.0000   0.0680
  -6.300  -0.3438   0.04821   0.04561  -0.0648  0.9806  0.0266  -2.5297   0.0000   0.0000   0.0000   0.0568
  -6.200  -0.3323   0.04647   0.04379  -0.0669  0.9790  0.0274  -2.5098   0.0000   0.0000   0.0000   0.0440
  -6.100  -0.3200   0.04451   0.04175  -0.0692  0.9776  0.0284  -2.5070   0.0000   0.0000   0.0000   0.0291
  -6.000  -0.3066   0.04241   0.03953  -0.0715  0.9764  0.0298  -2.5240   0.0000   0.0000   0.0000   0.0118
  -5.900  -0.2879   0.04181   0.03878  -0.0729  0.9755  0.0326  -2.5179   0.0000   0.0000   0.0000  -0.0084
  -5.800  -0.2691   0.04216   0.03896  -0.0742  0.9746  0.0336  -2.4724   0.0000   0.0000   0.0000  -0.0313
  -5.700  -0.2554   0.04060   0.03725  -0.0761  0.9737  0.0337  -2.4698   0.0000   0.0000   0.0000  -0.0536
  -5.600  -0.2584   0.03287   0.02913  -0.0791  0.9705  0.0355  -2.7151   0.0000   0.0000   0.0000  -0.0620
  -5.500  -0.2521   0.03153   0.02775  -0.0791  0.9675  0.0363  -2.6758   0.0000   0.0000   0.0000  -0.0699
  -5.400  -0.2420   0.03060   0.02680  -0.0796  0.9654  0.0370  -2.6079   0.0000   0.0000   0.0000  -0.0849
  -5.300  -0.2305   0.02982   0.02600  -0.0802  0.9636  0.0377  -2.5312   0.0000   0.0000   0.0000  -0.1041
  -5.200  -0.2182   0.02902   0.02516  -0.0809  0.9621  0.0385  -2.4576   0.0000   0.0000   0.0000  -0.1272
  -5.100  -0.2053   0.02820   0.02427  -0.0818  0.9607  0.0394  -2.3873   0.0000   0.0000   0.0000  -0.1549
  -5.000  -0.1917   0.02756   0.02359  -0.0827  0.9595  0.0410  -2.3041   0.0000   0.0000   0.0000  -0.1882
  -4.900  -0.1772   0.02701   0.02297  -0.0836  0.9584  0.0432  -2.2226   0.0000   0.0000   0.0000  -0.2288
  -4.800  -0.1617   0.02668   0.02255  -0.0844  0.9575  0.0460  -2.1452   0.0000   0.0000   0.0000  -0.2796
  -4.700  -0.1409   0.02955   0.02541  -0.0845  0.9569  0.0495  -1.9741   0.0000   0.0000   0.0000  -0.3584
  -4.600  -0.1345   0.01833   0.01289  -0.0845  0.9550  0.0242  -2.6319   0.0000   0.0000   0.0000  -0.3882
  -4.500  -0.1189   0.01834   0.01286  -0.0851  0.9541  0.0236  -2.5249   0.0000   0.0000   0.0000  -0.4774
  -4.400  -0.1033   0.01835   0.01286  -0.0859  0.9532  0.0233  -2.4113   0.0000   0.0000   0.0000  -0.5935
  -4.300  -0.0907   0.01633   0.01067  -0.0864  0.9522  0.0221  -2.4211   0.0000   0.0000   0.0000  -0.7164
  -4.200  -0.0767   0.01546   0.00970  -0.0869  0.9513  0.0216  -2.3672   0.0000   0.0000   0.0000  -0.8988
  -4.100  -0.0629   0.01475   0.00888  -0.0873  0.9502  0.0212  -2.3412   0.0000   0.0000   0.0000  -1.1579
  -4.000  -0.0564   0.01430   0.00838  -0.0863  0.9465  0.0210  -2.3209   0.0000   0.0000   0.0000  -1.3007
  -3.900  -0.0468   0.01382   0.00784  -0.0858  0.9436  0.0208  -2.2939   0.0000   0.0000   0.0000  -1.6089
  -3.800  -0.0359   0.01337   0.00734  -0.0856  0.9410  0.0207  -2.2622   0.0000   0.0000   0.0000  -2.1651
  -3.700  -0.0244   0.01294   0.00686  -0.0856  0.9387  0.0206  -2.2266   0.0000   0.0000   0.0000  -3.3039
  -3.600  -0.0123   0.01255   0.00642  -0.0857  0.9366  0.0205  -2.1875   0.0000   0.0000   0.0000  -6.7853
  -3.500  -0.0000   0.01218   0.00601  -0.0858  0.9346  0.0205  -2.1458   0.0000   0.0000   0.0000  -8313.9487
  -3.400   0.0124   0.01185   0.00564  -0.0859  0.9327  0.0206  -2.1020   0.0000   0.0000   0.0000   7.2447
  -3.300   0.0248   0.01154   0.00530  -0.0860  0.9308  0.0208  -2.0567   0.0000   0.0000   0.0000   3.7539
  -3.200   0.0370   0.01127   0.00499  -0.0861  0.9290  0.0211  -2.0111   0.0000   0.0000   0.0000   2.5984
  -3.100   0.0490   0.01103   0.00472  -0.0861  0.9271  0.0214  -1.9654   0.0000   0.0000   0.0000   2.0236
  -3.000   0.0587   0.01084   0.00450  -0.0857  0.9240  0.0219  -1.9245   0.0000   0.0000   0.0000   1.7248
  -2.900   0.0682   0.01067   0.00430  -0.0852  0.9204  0.0224  -1.8837   0.0000   0.0000   0.0000   1.5118
  -2.800   0.0786   0.01051   0.00411  -0.0849  0.9171  0.0230  -1.8396   0.0000   0.0000   0.0000   1.3407
  -2.700   0.0893   0.01020   0.00374  -0.0847  0.9139  0.0257  -1.8288   0.0000   0.0000   0.0000   1.2066
  -2.600   0.1003   0.00999   0.00353  -0.0845  0.9111  0.0297  -1.7942   0.0000   0.0000   0.0000   1.0989
  -2.500   0.1114   0.00973   0.00331  -0.0843  0.9084  0.0425  -1.7694   0.0000   0.0000   0.0000   1.0122
  -2.400   0.1219   0.00933   0.00313  -0.0842  0.9058  0.0962  -1.7306   0.0000   0.0000   0.0000   0.9453
  -2.300   0.1329   0.00908   0.00302  -0.0841  0.9033  0.1379  -1.6658   0.0000   0.0000   0.0000   0.8874
  -2.200   0.1427   0.00884   0.00296  -0.0839  0.9000  0.1845  -1.5983   0.0000   0.0000   0.0000   0.8419
  -2.100   0.1522   0.00861   0.00290  -0.0837  0.8960  0.2311  -1.5297   0.0000   0.0000   0.0000   0.8030
  -2.000   0.1621   0.00838   0.00284  -0.0835  0.8920  0.2789  -1.4587   0.0000   0.0000   0.0000   0.7677
  -1.900   0.1722   0.00815   0.00277  -0.0833  0.8883  0.3297  -1.3864   0.0000   0.0000   0.0000   0.7360
  -1.800   0.1826   0.00795   0.00270  -0.0831  0.8848  0.3715  -1.3133   0.0000   0.0000   0.0000   0.7071
  -1.700   0.1932   0.00777   0.00263  -0.0829  0.8817  0.4121  -1.2395   0.0000   0.0000   0.0000   0.6809
  -1.600   0.2039   0.00760   0.00257  -0.0827  0.8786  0.4556  -1.1657   0.0000   0.0000   0.0000   0.6573
  -1.500   0.2135   0.00743   0.00255  -0.0824  0.8742  0.5023  -1.0961   0.0000   0.0000   0.0000   0.6373
  -1.400   0.2227   0.00720   0.00254  -0.0820  0.8694  0.5646  -1.0278   0.0000   0.0000   0.0000   0.6192
  -1.300   0.2317   0.00697   0.00251  -0.0814  0.8648  0.6323  -0.9567   0.0000   0.0000   0.0000   0.6023
  -1.200   0.2406   0.00677   0.00250  -0.0808  0.8606  0.6927  -0.8915   0.0000   0.0000   0.0000   0.5863
  -1.100   0.2497   0.00661   0.00248  -0.0801  0.8568  0.7404  -0.8263   0.0000   0.0000   0.0000   0.5711
  -1.000   0.2589   0.00651   0.00246  -0.0794  0.8526  0.7777  -0.7621   0.0000   0.0000   0.0000   0.5570
  -0.900   0.2674   0.00641   0.00246  -0.0786  0.8471  0.8090  -0.7010   0.0000   0.0000   0.0000   0.5441
  -0.800   0.2756   0.00632   0.00244  -0.0777  0.8416  0.8410  -0.6414   0.0000   0.0000   0.0000   0.5319
  -0.700   0.2840   0.00624   0.00241  -0.0767  0.8366  0.8717  -0.5823   0.0000   0.0000   0.0000   0.5201
  -0.600   0.2930   0.00618   0.00236  -0.0759  0.8320  0.8986  -0.5306   0.0000   0.0000   0.0000   0.5088
  -0.500   0.3036   0.00613   0.00233  -0.0755  0.8268  0.9216  -0.5405   0.0000   0.0000   0.0000   0.4983
  -0.400   0.3170   0.00610   0.00228  -0.0758  0.8208  0.9416  -0.5526   0.0000   0.0000   0.0000   0.4885
  -0.300   0.3337   0.00606   0.00222  -0.0768  0.8151  0.9607  -0.5670   0.0000   0.0000   0.0000   0.4794
  -0.200   0.3519   0.00603   0.00214  -0.0781  0.8097  0.9775  -0.5824   0.0000   0.0000   0.0000   0.4712
  -0.100   0.3709   0.00601   0.00206  -0.0797  0.8041  0.9924  -0.5983   0.0000   0.0000   0.0000   0.4640
   0.000   0.3865   0.00600   0.00202  -0.0806  0.7972  1.0000  -0.6125   0.0000   0.0000   0.0000   0.4577
   0.100   0.3961   0.00601   0.00198  -0.0803  0.7899  1.0000  -0.6239   0.0000   0.0000   0.0000   0.4516
   0.200   0.4060   0.00604   0.00193  -0.0799  0.7833  1.0000  -0.6354   0.0000   0.0000   0.0000   0.4457
   0.300   0.4159   0.00606   0.00192  -0.0796  0.7759  1.0000  -0.6469   0.0000   0.0000   0.0000   0.4402
   0.400   0.4259   0.00608   0.00190  -0.0793  0.7682  1.0000  -0.6586   0.0000   0.0000   0.0000   0.4349
   0.500   0.4360   0.00612   0.00187  -0.0790  0.7608  1.0000  -0.6703   0.0000   0.0000   0.0000   0.4298
   0.600   0.4462   0.00615   0.00186  -0.0788  0.7532  1.0000  -0.6829   0.0000   0.0000   0.0000   0.4250
   0.700   0.4563   0.00619   0.00185  -0.0785  0.7449  1.0000  -0.6959   0.0000   0.0000   0.0000   0.4204
   0.800   0.4665   0.00624   0.00183  -0.0782  0.7371  1.0000  -0.7091   0.0000   0.0000   0.0000   0.4160
   0.900   0.4768   0.00628   0.00183  -0.0780  0.7294  1.0000  -0.7223   0.0000   0.0000   0.0000   0.4119
   1.000   0.4871   0.00632   0.00183  -0.0778  0.7210  1.0000  -0.7356   0.0000   0.0000   0.0000   0.4079
   1.100   0.4973   0.00638   0.00182  -0.0775  0.7129  1.0000  -0.7489   0.0000   0.0000   0.0000   0.4040
   1.200   0.5077   0.00643   0.00184  -0.0774  0.7050  1.0000  -0.7627   0.0000   0.0000   0.0000   0.4003
   1.300   0.5180   0.00648   0.00184  -0.0772  0.6965  1.0000  -0.7777   0.0000   0.0000   0.0000   0.3968
   1.400   0.5282   0.00655   0.00184  -0.0769  0.6883  1.0000  -0.7926   0.0000   0.0000   0.0000   0.3934
   1.500   0.5387   0.00659   0.00186  -0.0767  0.6802  1.0000  -0.8078   0.0000   0.0000   0.0000   0.3901
   1.600   0.5491   0.00665   0.00187  -0.0765  0.6715  1.0000  -0.8230   0.0000   0.0000   0.0000   0.3870
   1.700   0.5592   0.00673   0.00188  -0.0763  0.6633  1.0000  -0.8381   0.0000   0.0000   0.0000   0.3839
   1.800   0.5698   0.00678   0.00190  -0.0761  0.6552  1.0000  -0.8535   0.0000   0.0000   0.0000   0.3811
   1.900   0.5801   0.00684   0.00192  -0.0760  0.6466  1.0000  -0.8688   0.0000   0.0000   0.0000   0.3783
   2.000   0.5903   0.00693   0.00194  -0.0757  0.6383  1.0000  -0.8850   0.0000   0.0000   0.0000   0.3755
   2.100   0.6009   0.00697   0.00197  -0.0756  0.6299  1.0000  -0.9026   0.0000   0.0000   0.0000   0.3730
   2.200   0.6111   0.00705   0.00200  -0.0754  0.6209  1.0000  -0.9201   0.0000   0.0000   0.0000   0.3705
   2.300   0.6214   0.00713   0.00202  -0.0752  0.6128  1.0000  -0.9375   0.0000   0.0000   0.0000   0.3680
   2.400   0.6319   0.00718   0.00206  -0.0750  0.6045  1.0000  -0.9553   0.0000   0.0000   0.0000   0.3657
   2.500   0.6422   0.00726   0.00209  -0.0748  0.5959  1.0000  -0.9729   0.0000   0.0000   0.0000   0.3634
   2.600   0.6524   0.00735   0.00214  -0.0746  0.5877  1.0000  -0.9906   0.0000   0.0000   0.0000   0.3612
   2.700   0.6629   0.00741   0.00218  -0.0745  0.5788  1.0000  -1.0085   0.0000   0.0000   0.0000   0.3591
   2.800   0.6731   0.00750   0.00222  -0.0743  0.5697  1.0000  -1.0283   0.0000   0.0000   0.0000   0.3570
   2.900   0.6834   0.00757   0.00226  -0.0741  0.5614  1.0000  -1.0488   0.0000   0.0000   0.0000   0.3550
   3.000   0.6938   0.00764   0.00230  -0.0739  0.5525  1.0000  -1.0695   0.0000   0.0000   0.0000   0.3530
   3.100   0.7039   0.00774   0.00234  -0.0737  0.5442  1.0000  -1.0899   0.0000   0.0000   0.0000   0.3511
   3.200   0.7144   0.00781   0.00239  -0.0736  0.5364  1.0000  -1.1108   0.0000   0.0000   0.0000   0.3493
   3.300   0.7247   0.00789   0.00244  -0.0734  0.5274  1.0000  -1.1317   0.0000   0.0000   0.0000   0.3475
   3.400   0.7346   0.00801   0.00249  -0.0732  0.5185  1.0000  -1.1522   0.0000   0.0000   0.0000   0.3457
   3.500   0.7451   0.00807   0.00254  -0.0731  0.5097  1.0000  -1.1735   0.0000   0.0000   0.0000   0.3441
   3.600   0.7553   0.00817   0.00260  -0.0729  0.5002  1.0000  -1.1968   0.0000   0.0000   0.0000   0.3424
   3.700   0.7653   0.00828   0.00266  -0.0727  0.4916  1.0000  -1.2209   0.0000   0.0000   0.0000   0.3408
   3.800   0.7757   0.00835   0.00272  -0.0725  0.4831  1.0000  -1.2457   0.0000   0.0000   0.0000   0.3392
   3.900   0.7858   0.00845   0.00278  -0.0723  0.4745  1.0000  -1.2702   0.0000   0.0000   0.0000   0.3377
   4.000   0.7959   0.00855   0.00284  -0.0721  0.4664  1.0000  -1.2948   0.0000   0.0000   0.0000   0.3362
   4.100   0.8063   0.00863   0.00294  -0.0720  0.4573  1.0000  -1.3198   0.0000   0.0000   0.0000   0.3347
   4.200   0.8161   0.00876   0.00301  -0.0718  0.4479  1.0000  -1.3443   0.0000   0.0000   0.0000   0.3333
   4.300   0.8263   0.00885   0.00308  -0.0716  0.4390  1.0000  -1.3695   0.0000   0.0000   0.0000   0.3319
   4.400   0.8364   0.00896   0.00315  -0.0714  0.4293  1.0000  -1.3945   0.0000   0.0000   0.0000   0.3305
   4.500   0.8461   0.00909   0.00323  -0.0712  0.4203  1.0000  -1.4260   0.0000   0.0000   0.0000   0.3292
   4.600   0.8565   0.00917   0.00330  -0.0710  0.4120  1.0000  -1.4615   0.0000   0.0000   0.0000   0.3279
   4.700   0.8664   0.00929   0.00339  -0.0708  0.4032  1.0000  -1.4964   0.0000   0.0000   0.0000   0.3266
   4.800   0.8763   0.00941   0.00347  -0.0706  0.3948  1.0000  -1.5314   0.0000   0.0000   0.0000   0.3254
   4.900   0.8865   0.00951   0.00355  -0.0705  0.3856  1.0000  -1.5672   0.0000   0.0000   0.0000   0.3242
   5.000   0.8960   0.00966   0.00365  -0.0702  0.3759  1.0000  -1.6022   0.0000   0.0000   0.0000   0.3229
   5.100   0.9061   0.00977   0.00374  -0.0700  0.3670  1.0000  -1.6382   0.0000   0.0000   0.0000   0.3218
   5.200   0.9160   0.00989   0.00383  -0.0698  0.3574  1.0000  -1.6741   0.0000   0.0000   0.0000   0.3206
   5.300   0.9255   0.01005   0.00393  -0.0696  0.3485  1.0000  -1.7123   0.0000   0.0000   0.0000   0.3194
   5.400   0.9357   0.01014   0.00403  -0.0694  0.3405  1.0000  -1.7545   0.0000   0.0000   0.0000   0.3183
   5.500   0.9454   0.01028   0.00416  -0.0692  0.3319  1.0000  -1.7959   0.0000   0.0000   0.0000   0.3172
   5.600   0.9550   0.01043   0.00428  -0.0690  0.3239  1.0000  -1.8711   0.0000   0.0000   0.0000   0.3161
   5.700   0.9652   0.01053   0.00438  -0.0688  0.3159  1.0000  -1.9512   0.0000   0.0000   0.0000   0.3151
   5.800   0.9746   0.01069   0.00450  -0.0685  0.3070  1.0000  -2.0302   0.0000   0.0000   0.0000   0.3141
   5.900   0.9842   0.01084   0.00461  -0.0683  0.2982  1.0000  -2.1108   0.0000   0.0000   0.0000   0.3130
   6.000   0.9940   0.01097   0.00472  -0.0681  0.2883  1.0000  -2.1931   0.0000   0.0000   0.0000   0.3120
   6.100   1.0029   0.01118   0.00486  -0.0678  0.2780  1.0000  -2.2731   0.0000   0.0000   0.0000   0.3110
   6.200   1.0128   0.01129   0.00497  -0.0676  0.2689  1.0000  -2.3584   0.0000   0.0000   0.0000   0.3100
   6.300   1.0219   0.01149   0.00511  -0.0673  0.2586  1.0000  -2.4409   0.0000   0.0000   0.0000   0.3090
   6.400   1.0314   0.01164   0.00523  -0.0671  0.2495  1.0000  -2.5262   0.0000   0.0000   0.0000   0.3081
   6.500   1.0408   0.01180   0.00536  -0.0668  0.2398  1.0000  -2.6120   0.0000   0.0000   0.0000   0.3071
   6.600   1.0497   0.01201   0.00551  -0.0665  0.2303  1.0000  -2.6964   0.0000   0.0000   0.0000   0.3062
   6.700   1.0593   0.01215   0.00564  -0.0663  0.2216  1.0000  -2.7852   0.0000   0.0000   0.0000   0.3053
   6.800   1.0682   0.01236   0.00579  -0.0660  0.2120  1.0000  -2.8711   0.0000   0.0000   0.0000   0.3043
   6.900   1.0775   0.01252   0.00594  -0.0657  0.2042  1.0000  -2.9602   0.0000   0.0000   0.0000   0.3035
   7.000   1.0869   0.01268   0.00611  -0.0655  0.1963  1.0000  -3.0538   0.0000   0.0000   0.0000   0.3026
   7.100   1.0956   0.01290   0.00628  -0.0652  0.1880  1.0000  -3.1418   0.0000   0.0000   0.0000   0.3017
   7.200   1.1050   0.01306   0.00643  -0.0649  0.1815  1.0000  -3.2337   0.0000   0.0000   0.0000   0.3008
   7.300   1.1143   0.01322   0.00658  -0.0647  0.1743  1.0000  -3.3258   0.0000   0.0000   0.0000   0.3000
   7.400   1.1230   0.01345   0.00676  -0.0643  0.1666  1.0000  -3.4153   0.0000   0.0000   0.0000   0.2991
   7.500   1.1321   0.01362   0.00693  -0.0640  0.1603  1.0000  -3.5077   0.0000   0.0000   0.0000   0.2983
   7.600   1.1413   0.01378   0.00709  -0.0638  0.1537  1.0000  -3.6016   0.0000   0.0000   0.0000   0.2975
   7.700   1.1499   0.01401   0.00727  -0.0634  0.1461  1.0000  -3.6927   0.0000   0.0000   0.0000   0.2966
   7.800   1.1585   0.01422   0.00746  -0.0631  0.1390  1.0000  -3.7847   0.0000   0.0000   0.0000   0.2958
   7.900   1.1675   0.01440   0.00762  -0.0628  0.1317  1.0000  -3.8793   0.0000   0.0000   0.0000   0.2950
   8.000   1.1755   0.01467   0.00782  -0.0624  0.1229  1.0000  -3.9695   0.0000   0.0000   0.0000   0.2942
   8.100   1.1842   0.01487   0.00802  -0.0621  0.1162  1.0000  -4.0632   0.0000   0.0000   0.0000   0.2933
   8.200   1.1929   0.01507   0.00821  -0.0617  0.1101  1.0000  -4.1574   0.0000   0.0000   0.0000   0.2926
   8.300   1.2010   0.01532   0.00842  -0.0613  0.1035  1.0000  -4.2486   0.0000   0.0000   0.0000   0.2917
   8.400   1.2093   0.01556   0.00863  -0.0609  0.0975  1.0000  -4.3404   0.0000   0.0000   0.0000   0.2909
   8.500   1.2180   0.01575   0.00883  -0.0606  0.0925  1.0000  -4.4347   0.0000   0.0000   0.0000   0.2902
   8.600   1.2258   0.01601   0.00908  -0.0602  0.0858  1.0000  -4.5238   0.0000   0.0000   0.0000   0.2894
   8.700   1.2333   0.01631   0.00934  -0.0597  0.0786  1.0000  -4.6107   0.0000   0.0000   0.0000   0.2885
   8.800   1.2418   0.01651   0.00955  -0.0593  0.0740  1.0000  -4.7024   0.0000   0.0000   0.0000   0.2878
   8.900   1.2492   0.01680   0.00980  -0.0588  0.0674  1.0000  -4.7879   0.0000   0.0000   0.0000   0.2869
   9.000   1.2560   0.01714   0.01010  -0.0582  0.0597  1.0000  -4.8676   0.0000   0.0000   0.0000   0.2861
   9.100   1.2633   0.01744   0.01037  -0.0577  0.0525  1.0000  -4.9463   0.0000   0.0000   0.0000   0.2853
   9.200   1.2687   0.01790   0.01075  -0.0569  0.0425  1.0000  -5.0111   0.0000   0.0000   0.0000   0.2843
   9.300   1.2729   0.01846   0.01120  -0.0560  0.0320  1.0000  -5.0626   0.0000   0.0000   0.0000   0.2833
   9.400   1.2778   0.01895   0.01166  -0.0551  0.0251  1.0000  -5.1090   0.0000   0.0000   0.0000   0.2823
   9.500   1.2814   0.01956   0.01223  -0.0540  0.0203  1.0000  -5.1365   0.0000   0.0000   0.0000   0.2812
   9.600   1.2880   0.01988   0.01259  -0.0533  0.0191  1.0000  -5.1985   0.0000   0.0000   0.0000   0.2803
   9.700   1.2941   0.02021   0.01297  -0.0526  0.0180  1.0000  -5.2603   0.0000   0.0000   0.0000   0.2794
   9.800   1.2999   0.02057   0.01335  -0.0518  0.0171  1.0000  -5.3249   0.0000   0.0000   0.0000   0.2785
   9.900   1.3052   0.02096   0.01376  -0.0510  0.0164  1.0000  -5.4091   0.0000   0.0000   0.0000   0.2776
  10.000   1.3097   0.02137   0.01419  -0.0500  0.0157  1.0000  -5.4882   0.0000   0.0000   0.0000   0.2766
  10.100   1.3132   0.02179   0.01465  -0.0489  0.0151  1.0000  -5.5587   0.0000   0.0000   0.0000   0.2754
  10.200   1.3156   0.02226   0.01516  -0.0476  0.0147  1.0000  -5.6210   0.0000   0.0000   0.0000   0.2742
  10.300   1.3171   0.02276   0.01573  -0.0462  0.0143  1.0000  -5.6762   0.0000   0.0000   0.0000   0.2730
  10.400   1.3177   0.02332   0.01635  -0.0446  0.0140  1.0000  -5.7250   0.0000   0.0000   0.0000   0.2717
  10.500   1.3176   0.02392   0.01702  -0.0431  0.0138  1.0000  -5.7687   0.0000   0.0000   0.0000   0.2703
  10.600   1.3188   0.02447   0.01761  -0.0417  0.0136  1.0000  -5.8238   0.0000   0.0000   0.0000   0.2691
  10.700   1.3214   0.02491   0.01810  -0.0406  0.0135  1.0000  -5.8943   0.0000   0.0000   0.0000   0.2681
  10.800   1.3238   0.02539   0.01862  -0.0395  0.0135  1.0000  -5.9633   0.0000   0.0000   0.0000   0.2671
  10.900   1.3260   0.02588   0.01917  -0.0384  0.0134  1.0000  -6.0306   0.0000   0.0000   0.0000   0.2660
  11.000   1.3279   0.02641   0.01974  -0.0373  0.0133  1.0000  -6.0957   0.0000   0.0000   0.0000   0.2650
  11.100   1.3296   0.02695   0.02037  -0.0362  0.0133  1.0000  -6.1568   0.0000   0.0000   0.0000   0.2640
  11.200   1.3312   0.02753   0.02100  -0.0352  0.0132  1.0000  -6.2190   0.0000   0.0000   0.0000   0.2630
  11.300   1.3325   0.02812   0.02165  -0.0341  0.0131  1.0000  -6.2797   0.0000   0.0000   0.0000   0.2621
  11.400   1.3338   0.02874   0.02231  -0.0331  0.0131  1.0000  -6.3409   0.0000   0.0000   0.0000   0.2612
  11.500   1.3351   0.02937   0.02300  -0.0322  0.0130  1.0000  -6.4022   0.0000   0.0000   0.0000   0.2603
  11.600   1.3363   0.03002   0.02370  -0.0313  0.0129  1.0000  -6.4635   0.0000   0.0000   0.0000   0.2594
  11.700   1.3375   0.03068   0.02441  -0.0304  0.0128  1.0000  -6.5255   0.0000   0.0000   0.0000   0.2585
  11.800   1.3386   0.03136   0.02515  -0.0295  0.0128  1.0000  -6.5869   0.0000   0.0000   0.0000   0.2577
  11.900   1.3396   0.03206   0.02590  -0.0287  0.0127  1.0000  -6.6483   0.0000   0.0000   0.0000   0.2569
  12.000   1.3407   0.03278   0.02667  -0.0280  0.0126  1.0000  -6.7103   0.0000   0.0000   0.0000   0.2562
  12.100   1.3416   0.03352   0.02746  -0.0272  0.0125  1.0000  -6.7714   0.0000   0.0000   0.0000   0.2555
  12.200   1.3425   0.03429   0.02828  -0.0265  0.0124  1.0000  -6.8326   0.0000   0.0000   0.0000   0.2548
  12.300   1.3434   0.03508   0.02912  -0.0259  0.0123  1.0000  -6.8932   0.0000   0.0000   0.0000   0.2541
  12.400   1.3440   0.03589   0.02999  -0.0253  0.0122  1.0000  -6.9525   0.0000   0.0000   0.0000   0.2535
  12.500   1.3446   0.03673   0.03088  -0.0247  0.0121  1.0000  -7.0114   0.0000   0.0000   0.0000   0.2529
  12.600   1.3449   0.03761   0.03181  -0.0242  0.0120  1.0000  -7.0683   0.0000   0.0000   0.0000   0.2523
  12.700   1.3452   0.03851   0.03277  -0.0237  0.0119  1.0000  -7.1242   0.0000   0.0000   0.0000   0.2517
  12.800   1.3453   0.03946   0.03378  -0.0232  0.0118  1.0000  -7.1780   0.0000   0.0000   0.0000   0.2512
  12.900   1.3453   0.04045   0.03482  -0.0228  0.0117  1.0000  -7.2296   0.0000   0.0000   0.0000   0.2507
  13.000   1.3450   0.04149   0.03591  -0.0224  0.0117  1.0000  -7.2786   0.0000   0.0000   0.0000   0.2503
  13.100   1.3445   0.04258   0.03706  -0.0221  0.0116  1.0000  -7.3239   0.0000   0.0000   0.0000   0.2498
  13.200   1.3439   0.04370   0.03824  -0.0218  0.0116  1.0000  -7.3676   0.0000   0.0000   0.0000   0.2494
  13.300   1.3430   0.04486   0.03947  -0.0215  0.0116  1.0000  -7.4091   0.0000   0.0000   0.0000   0.2491
  13.400   1.3422   0.04605   0.04072  -0.0213  0.0115  1.0000  -7.4499   0.0000   0.0000   0.0000   0.2488
  13.500   1.3411   0.04730   0.04202  -0.0212  0.0115  1.0000  -7.4885   0.0000   0.0000   0.0000   0.2485
  13.600   1.3400   0.04857   0.04336  -0.0211  0.0115  1.0000  -7.5263   0.0000   0.0000   0.0000   0.2482
  13.700   1.3386   0.04989   0.04475  -0.0211  0.0115  1.0000  -7.5617   0.0000   0.0000   0.0000   0.2480
  13.800   1.3372   0.05126   0.04617  -0.0211  0.0114  1.0000  -7.5959   0.0000   0.0000   0.0000   0.2479
  13.900   1.3356   0.05267   0.04765  -0.0211  0.0114  1.0000  -7.6278   0.0000   0.0000   0.0000   0.2477
  14.000   1.3339   0.05412   0.04917  -0.0212  0.0114  1.0000  -7.6579   0.0000   0.0000   0.0000   0.2477
  14.100   1.3320   0.05562   0.05074  -0.0214  0.0113  1.0000  -7.6858   0.0000   0.0000   0.0000   0.2476
  14.200   1.3298   0.05718   0.05236  -0.0217  0.0113  1.0000  -7.7110   0.0000   0.0000   0.0000   0.2476
  14.300   1.3274   0.05878   0.05403  -0.0219  0.0113  1.0000  -7.7342   0.0000   0.0000   0.0000   0.2477
  14.400   1.3249   0.06044   0.05576  -0.0223  0.0113  1.0000  -7.7544   0.0000   0.0000   0.0000   0.2478
  14.500   1.3222   0.06215   0.05754  -0.0227  0.0113  1.0000  -7.7732   0.0000   0.0000   0.0000   0.2479
  14.600   1.3193   0.06394   0.05940  -0.0232  0.0113  1.0000  -7.7886   0.0000   0.0000   0.0000   0.2482
  14.700   1.3163   0.06577   0.06130  -0.0237  0.0112  1.0000  -7.8024   0.0000   0.0000   0.0000   0.2484
  14.800   1.3129   0.06769   0.06329  -0.0244  0.0112  1.0000  -7.8124   0.0000   0.0000   0.0000   0.2487
  14.900   1.3096   0.06965   0.06532  -0.0250  0.0112  1.0000  -7.8209   0.0000   0.0000   0.0000   0.2491
  15.000   1.3058   0.07171   0.06744  -0.0258  0.0112  1.0000  -7.8250   0.0000   0.0000   0.0000   0.2496


