xflr5 v6.61

 Calculated polar for: SD7037-092-88

 1 1 Reynolds number fixed          Mach number fixed         

 xtrf =   1.000 (top)        1.000 (bottom)
 Mach =   0.000     Re =     0.425 e 6     Ncrit =   9.000

  alpha     CL        CD       CDp       Cm    Top Xtr Bot Xtr   Cpmin    Chinge    XCp    
 ------- -------- --------- --------- -------- ------- ------- -------- --------- ---------
 -10.000  -0.3701   0.10542   0.10283  -0.0294  1.0000  0.0179  -1.7218   0.0000   0.0000   0.0000   0.1629
  -9.900  -0.3688   0.10420   0.10163  -0.0297  1.0000  0.0181  -1.7237   0.0000   0.0000   0.0000   0.1618
  -9.800  -0.3676   0.10297   0.10040  -0.0301  1.0000  0.0183  -1.7268   0.0000   0.0000   0.0000   0.1608
  -9.700  -0.3665   0.10173   0.09918  -0.0304  1.0000  0.0184  -1.7312   0.0000   0.0000   0.0000   0.1597
  -9.600  -0.3655   0.10049   0.09794  -0.0307  1.0000  0.0186  -1.7368   0.0000   0.0000   0.0000   0.1586
  -9.500  -0.3646   0.09925   0.09671  -0.0311  1.0000  0.0188  -1.7438   0.0000   0.0000   0.0000   0.1576
  -9.400  -0.3638   0.09799   0.09547  -0.0314  1.0000  0.0190  -1.7521   0.0000   0.0000   0.0000   0.1565
  -9.300  -0.3631   0.09674   0.09422  -0.0318  1.0000  0.0192  -1.7618   0.0000   0.0000   0.0000   0.1555
  -9.200  -0.3626   0.09548   0.09297  -0.0321  1.0000  0.0194  -1.7730   0.0000   0.0000   0.0000   0.1545
  -9.100  -0.3622   0.09421   0.09172  -0.0325  1.0000  0.0197  -1.7858   0.0000   0.0000   0.0000   0.1536
  -9.000  -0.3620   0.09293   0.09045  -0.0328  1.0000  0.0199  -1.8004   0.0000   0.0000   0.0000   0.1527
  -8.900  -0.3620   0.09166   0.08919  -0.0331  1.0000  0.0201  -1.8169   0.0000   0.0000   0.0000   0.1518
  -8.800  -0.3623   0.09038   0.08793  -0.0335  1.0000  0.0204  -1.8357   0.0000   0.0000   0.0000   0.1511
  -8.700  -0.3628   0.08911   0.08667  -0.0338  1.0000  0.0206  -1.8571   0.0000   0.0000   0.0000   0.1505
  -8.600  -0.3637   0.08784   0.08541  -0.0341  1.0000  0.0209  -1.8817   0.0000   0.0000   0.0000   0.1500
  -8.500  -0.3650   0.08657   0.08417  -0.0343  1.0000  0.0212  -1.9099   0.0000   0.0000   0.0000   0.1498
  -8.400  -0.3669   0.08534   0.08295  -0.0345  1.0000  0.0214  -1.9417   0.0000   0.0000   0.0000   0.1498
  -8.300  -0.3693   0.08416   0.08179  -0.0346  1.0000  0.0217  -1.9770   0.0000   0.0000   0.0000   0.1502
  -8.200  -0.3723   0.08307   0.08072  -0.0346  1.0000  0.0220  -2.0135   0.0000   0.0000   0.0000   0.1511
  -8.100  -0.3762   0.08207   0.07976  -0.0344  1.0000  0.0222  -2.0504   0.0000   0.0000   0.0000   0.1528
  -8.000  -0.3809   0.08122   0.07892  -0.0340  1.0000  0.0224  -2.0817   0.0000   0.0000   0.0000   0.1553
  -7.900  -0.3858   0.08049   0.07822  -0.0332  1.0000  0.0225  -2.1052   0.0000   0.0000   0.0000   0.1585
  -7.800  -0.3919   0.07982   0.07757  -0.0323  1.0000  0.0225  -2.1279   0.0000   0.0000   0.0000   0.1624
  -7.700  -0.3991   0.07919   0.07697  -0.0311  1.0000  0.0226  -2.1503   0.0000   0.0000   0.0000   0.1669
  -7.600  -0.4073   0.07863   0.07643  -0.0298  1.0000  0.0226  -2.1724   0.0000   0.0000   0.0000   0.1719
  -7.500  -0.4164   0.07808   0.07591  -0.0284  1.0000  0.0226  -2.1946   0.0000   0.0000   0.0000   0.1771
  -7.400  -0.4243   0.07738   0.07523  -0.0275  1.0000  0.0226  -2.2182   0.0000   0.0000   0.0000   0.1808
  -7.300  -0.4178   0.07516   0.07301  -0.0312  0.9989  0.0228  -2.2576   0.0000   0.0000   0.0000   0.1709
  -7.200  -0.4056   0.07190   0.06974  -0.0372  0.9969  0.0229  -2.3117   0.0000   0.0000   0.0000   0.1538
  -7.100  -0.3943   0.06844   0.06625  -0.0431  0.9948  0.0230  -2.3763   0.0000   0.0000   0.0000   0.1362
  -7.000  -0.3828   0.06475   0.06250  -0.0488  0.9930  0.0230  -2.4533   0.0000   0.0000   0.0000   0.1179
  -6.900  -0.3715   0.06101   0.05868  -0.0540  0.9914  0.0231  -2.5398   0.0000   0.0000   0.0000   0.0998
  -6.800  -0.3635   0.05788   0.05546  -0.0576  0.9894  0.0231  -2.6165   0.0000   0.0000   0.0000   0.0866
  -6.700  -0.3712   0.04969   0.04710  -0.0637  0.9848  0.0238  -2.9402   0.0000   0.0000   0.0000   0.0734
  -6.600  -0.3653   0.04713   0.04449  -0.0659  0.9827  0.0243  -2.9408   0.0000   0.0000   0.0000   0.0646
  -6.500  -0.3557   0.04608   0.04343  -0.0671  0.9812  0.0247  -2.8643   0.0000   0.0000   0.0000   0.0564
  -6.400  -0.3451   0.04521   0.04255  -0.0683  0.9799  0.0251  -2.7820   0.0000   0.0000   0.0000   0.0472
  -6.300  -0.3339   0.04420   0.04151  -0.0697  0.9786  0.0256  -2.7118   0.0000   0.0000   0.0000   0.0364
  -6.200  -0.3222   0.04302   0.04028  -0.0713  0.9774  0.0262  -2.6550   0.0000   0.0000   0.0000   0.0238
  -6.100  -0.3098   0.04164   0.03882  -0.0730  0.9763  0.0270  -2.6135   0.0000   0.0000   0.0000   0.0092
  -6.000  -0.2968   0.04010   0.03720  -0.0749  0.9753  0.0281  -2.5875   0.0000   0.0000   0.0000  -0.0074
  -5.900  -0.2830   0.03842   0.03540  -0.0767  0.9744  0.0295  -2.5811   0.0000   0.0000   0.0000  -0.0266
  -5.800  -0.2664   0.03754   0.03439  -0.0781  0.9737  0.0318  -2.5646   0.0000   0.0000   0.0000  -0.0487
  -5.700  -0.2455   0.03910   0.03582  -0.0786  0.9732  0.0335  -2.4664   0.0000   0.0000   0.0000  -0.0763
  -5.600  -0.2316   0.03777   0.03434  -0.0802  0.9724  0.0337  -2.4494   0.0000   0.0000   0.0000  -0.1027
  -5.500  -0.2276   0.03682   0.03329  -0.0794  0.9684  0.0337  -2.4400   0.0000   0.0000   0.0000  -0.1053
  -5.400  -0.2322   0.02941   0.02551  -0.0814  0.9640  0.0361  -2.6587   0.0000   0.0000   0.0000  -0.1070
  -5.300  -0.2207   0.02831   0.02436  -0.0822  0.9624  0.0369  -2.5917   0.0000   0.0000   0.0000  -0.1290
  -5.200  -0.2081   0.02751   0.02354  -0.0830  0.9611  0.0376  -2.5101   0.0000   0.0000   0.0000  -0.1557
  -5.100  -0.1948   0.02672   0.02271  -0.0839  0.9599  0.0384  -2.4312   0.0000   0.0000   0.0000  -0.1876
  -5.000  -0.1811   0.02610   0.02206  -0.0848  0.9589  0.0395  -2.3414   0.0000   0.0000   0.0000  -0.2257
  -4.900  -0.1671   0.02560   0.02153  -0.0857  0.9579  0.0413  -2.2485   0.0000   0.0000   0.0000  -0.2707
  -4.800  -0.1531   0.02508   0.02094  -0.0865  0.9568  0.0434  -2.1687   0.0000   0.0000   0.0000  -0.3231
  -4.700  -0.1386   0.02462   0.02040  -0.0871  0.9558  0.0456  -2.0968   0.0000   0.0000   0.0000  -0.3877
  -4.600  -0.1245   0.01833   0.01299  -0.0861  0.9543  0.0238  -2.5818   0.0000   0.0000   0.0000  -0.4529
  -4.500  -0.1092   0.01842   0.01308  -0.0868  0.9533  0.0234  -2.4659   0.0000   0.0000   0.0000  -0.5568
  -4.400  -0.0969   0.01644   0.01094  -0.0872  0.9522  0.0219  -2.4748   0.0000   0.0000   0.0000  -0.6635
  -4.300  -0.0835   0.01552   0.00991  -0.0876  0.9512  0.0213  -2.4264   0.0000   0.0000   0.0000  -0.8154
  -4.200  -0.0716   0.01482   0.00912  -0.0877  0.9495  0.0209  -2.3788   0.0000   0.0000   0.0000  -0.9920
  -4.100  -0.0641   0.01430   0.00853  -0.0868  0.9462  0.0206  -2.3613   0.0000   0.0000   0.0000  -1.1238
  -4.000  -0.0544   0.01377   0.00793  -0.0864  0.9434  0.0203  -2.3383   0.0000   0.0000   0.0000  -1.3584
  -3.900  -0.0437   0.01329   0.00739  -0.0862  0.9408  0.0200  -2.3099   0.0000   0.0000   0.0000  -1.7472
  -3.800  -0.0323   0.01285   0.00689  -0.0861  0.9385  0.0199  -2.2768   0.0000   0.0000   0.0000  -2.4525
  -3.700  -0.0205   0.01244   0.00643  -0.0861  0.9364  0.0197  -2.2397   0.0000   0.0000   0.0000  -4.0036
  -3.600  -0.0085   0.01207   0.00602  -0.0861  0.9344  0.0197  -2.1987   0.0000   0.0000   0.0000  -9.9570
  -3.500   0.0035   0.01173   0.00564  -0.0862  0.9324  0.0197  -2.1554   0.0000   0.0000   0.0000  25.3603
  -3.400   0.0154   0.01143   0.00529  -0.0862  0.9305  0.0198  -2.1105   0.0000   0.0000   0.0000   5.9062
  -3.300   0.0272   0.01115   0.00499  -0.0861  0.9286  0.0200  -2.0646   0.0000   0.0000   0.0000   3.4576
  -3.200   0.0389   0.01092   0.00472  -0.0861  0.9266  0.0202  -2.0180   0.0000   0.0000   0.0000   2.4880
  -3.100   0.0479   0.01072   0.00449  -0.0856  0.9233  0.0205  -1.9769   0.0000   0.0000   0.0000   2.0535
  -3.000   0.0577   0.01053   0.00427  -0.0852  0.9199  0.0210  -1.9345   0.0000   0.0000   0.0000   1.7416
  -2.900   0.0680   0.01035   0.00406  -0.0849  0.9166  0.0216  -1.8912   0.0000   0.0000   0.0000   1.5091
  -2.800   0.0788   0.01018   0.00385  -0.0847  0.9135  0.0224  -1.8475   0.0000   0.0000   0.0000   1.3332
  -2.700   0.0899   0.01001   0.00366  -0.0845  0.9107  0.0233  -1.8055   0.0000   0.0000   0.0000   1.1978
  -2.600   0.1008   0.00973   0.00333  -0.0842  0.9081  0.0277  -1.7943   0.0000   0.0000   0.0000   1.0923
  -2.500   0.1118   0.00955   0.00315  -0.0840  0.9055  0.0335  -1.7544   0.0000   0.0000   0.0000   1.0070
  -2.400   0.1224   0.00913   0.00295  -0.0839  0.9029  0.0841  -1.7273   0.0000   0.0000   0.0000   0.9402
  -2.300   0.1322   0.00890   0.00287  -0.0837  0.8995  0.1221  -1.6684   0.0000   0.0000   0.0000   0.8871
  -2.200   0.1420   0.00869   0.00280  -0.0834  0.8956  0.1620  -1.6020   0.0000   0.0000   0.0000   0.8414
  -2.100   0.1519   0.00844   0.00273  -0.0832  0.8917  0.2094  -1.5321   0.0000   0.0000   0.0000   0.8012
  -2.000   0.1621   0.00821   0.00266  -0.0831  0.8881  0.2565  -1.4603   0.0000   0.0000   0.0000   0.7654
  -1.900   0.1723   0.00798   0.00259  -0.0829  0.8846  0.3086  -1.3877   0.0000   0.0000   0.0000   0.7336
  -1.800   0.1828   0.00778   0.00252  -0.0827  0.8815  0.3532  -1.3140   0.0000   0.0000   0.0000   0.7047
  -1.700   0.1935   0.00761   0.00245  -0.0826  0.8784  0.3922  -1.2397   0.0000   0.0000   0.0000   0.6786
  -1.600   0.2034   0.00746   0.00243  -0.0824  0.8740  0.4325  -1.1687   0.0000   0.0000   0.0000   0.6564
  -1.500   0.2134   0.00729   0.00239  -0.0821  0.8693  0.4751  -1.0980   0.0000   0.0000   0.0000   0.6361
  -1.400   0.2232   0.00710   0.00236  -0.0818  0.8648  0.5286  -1.0277   0.0000   0.0000   0.0000   0.6175
  -1.300   0.2326   0.00686   0.00232  -0.0814  0.8606  0.5954  -0.9553   0.0000   0.0000   0.0000   0.6006
  -1.200   0.2420   0.00664   0.00231  -0.0808  0.8567  0.6608  -0.8887   0.0000   0.0000   0.0000   0.5847
  -1.100   0.2510   0.00648   0.00231  -0.0802  0.8525  0.7147  -0.8239   0.0000   0.0000   0.0000   0.5699
  -1.000   0.2599   0.00636   0.00231  -0.0796  0.8471  0.7563  -0.7606   0.0000   0.0000   0.0000   0.5563
  -0.900   0.2688   0.00625   0.00230  -0.0788  0.8417  0.7894  -0.6982   0.0000   0.0000   0.0000   0.5434
  -0.800   0.2776   0.00616   0.00227  -0.0780  0.8366  0.8221  -0.6369   0.0000   0.0000   0.0000   0.5311
  -0.600   0.2946   0.00602   0.00223  -0.0763  0.8267  0.8811  -0.5315   0.0000   0.0000   0.0000   0.5086
  -0.500   0.3037   0.00597   0.00221  -0.0756  0.8206  0.9052  -0.5406   0.0000   0.0000   0.0000   0.4984
  -0.400   0.3146   0.00593   0.00216  -0.0752  0.8146  0.9265  -0.5513   0.0000   0.0000   0.0000   0.4886
  -0.300   0.3284   0.00590   0.00210  -0.0756  0.8092  0.9465  -0.5640   0.0000   0.0000   0.0000   0.4794
  -0.200   0.3456   0.00588   0.00204  -0.0767  0.8037  0.9654  -0.5788   0.0000   0.0000   0.0000   0.4711
  -0.100   0.3643   0.00585   0.00199  -0.0782  0.7971  0.9817  -0.5944   0.0000   0.0000   0.0000   0.4639
   0.000   0.3829   0.00583   0.00192  -0.0798  0.7903  0.9959  -0.6104   0.0000   0.0000   0.0000   0.4573
   0.100   0.3958   0.00585   0.00186  -0.0801  0.7836  1.0000  -0.6239   0.0000   0.0000   0.0000   0.4512
   0.200   0.4057   0.00587   0.00185  -0.0798  0.7763  1.0000  -0.6353   0.0000   0.0000   0.0000   0.4455
   0.300   0.4156   0.00590   0.00183  -0.0795  0.7686  1.0000  -0.6469   0.0000   0.0000   0.0000   0.4399
   0.400   0.4255   0.00593   0.00180  -0.0791  0.7611  1.0000  -0.6585   0.0000   0.0000   0.0000   0.4346
   0.500   0.4357   0.00597   0.00178  -0.0789  0.7536  1.0000  -0.6702   0.0000   0.0000   0.0000   0.4296
   0.600   0.4458   0.00600   0.00177  -0.0786  0.7454  1.0000  -0.6828   0.0000   0.0000   0.0000   0.4248
   0.700   0.4559   0.00605   0.00175  -0.0783  0.7374  1.0000  -0.6958   0.0000   0.0000   0.0000   0.4202
   0.800   0.4662   0.00609   0.00175  -0.0781  0.7298  1.0000  -0.7090   0.0000   0.0000   0.0000   0.4159
   0.900   0.4765   0.00613   0.00175  -0.0779  0.7214  1.0000  -0.7223   0.0000   0.0000   0.0000   0.4117
   1.000   0.4866   0.00619   0.00174  -0.0776  0.7133  1.0000  -0.7355   0.0000   0.0000   0.0000   0.4077
   1.100   0.4970   0.00624   0.00175  -0.0775  0.7055  1.0000  -0.7489   0.0000   0.0000   0.0000   0.4038
   1.200   0.5074   0.00628   0.00176  -0.0772  0.6970  1.0000  -0.7626   0.0000   0.0000   0.0000   0.4002
   1.300   0.5176   0.00635   0.00176  -0.0770  0.6888  1.0000  -0.7775   0.0000   0.0000   0.0000   0.3966
   1.400   0.5280   0.00640   0.00178  -0.0768  0.6808  1.0000  -0.7926   0.0000   0.0000   0.0000   0.3933
   1.500   0.5384   0.00646   0.00179  -0.0766  0.6721  1.0000  -0.8078   0.0000   0.0000   0.0000   0.3900
   1.600   0.5486   0.00653   0.00180  -0.0764  0.6638  1.0000  -0.8228   0.0000   0.0000   0.0000   0.3869
   1.700   0.5591   0.00658   0.00182  -0.0763  0.6558  1.0000  -0.8382   0.0000   0.0000   0.0000   0.3839
   1.800   0.5695   0.00664   0.00184  -0.0761  0.6473  1.0000  -0.8535   0.0000   0.0000   0.0000   0.3810
   1.900   0.5797   0.00673   0.00185  -0.0758  0.6390  1.0000  -0.8687   0.0000   0.0000   0.0000   0.3782
   2.000   0.5903   0.00677   0.00188  -0.0757  0.6307  1.0000  -0.8853   0.0000   0.0000   0.0000   0.3755
   2.100   0.6006   0.00684   0.00190  -0.0755  0.6217  1.0000  -0.9027   0.0000   0.0000   0.0000   0.3729
   2.200   0.6108   0.00693   0.00193  -0.0753  0.6135  1.0000  -0.9200   0.0000   0.0000   0.0000   0.3704
   2.300   0.6214   0.00698   0.00196  -0.0752  0.6053  1.0000  -0.9378   0.0000   0.0000   0.0000   0.3680
   2.400   0.6318   0.00705   0.00199  -0.0750  0.5967  1.0000  -0.9554   0.0000   0.0000   0.0000   0.3657
   2.500   0.6420   0.00714   0.00202  -0.0748  0.5886  1.0000  -0.9729   0.0000   0.0000   0.0000   0.3634
   2.600   0.6525   0.00719   0.00208  -0.0747  0.5799  1.0000  -0.9909   0.0000   0.0000   0.0000   0.3612
   2.700   0.6627   0.00728   0.00211  -0.0745  0.5708  1.0000  -1.0086   0.0000   0.0000   0.0000   0.3590
   2.800   0.6730   0.00736   0.00215  -0.0743  0.5624  1.0000  -1.0285   0.0000   0.0000   0.0000   0.3570
   2.900   0.6835   0.00743   0.00219  -0.0741  0.5536  1.0000  -1.0492   0.0000   0.0000   0.0000   0.3550
   3.000   0.6937   0.00752   0.00223  -0.0739  0.5451  1.0000  -1.0696   0.0000   0.0000   0.0000   0.3530
   3.100   0.7041   0.00760   0.00228  -0.0738  0.5375  1.0000  -1.0904   0.0000   0.0000   0.0000   0.3512
   3.200   0.7145   0.00767   0.00232  -0.0736  0.5288  1.0000  -1.1113   0.0000   0.0000   0.0000   0.3493
   3.300   0.7246   0.00777   0.00237  -0.0734  0.5198  1.0000  -1.1319   0.0000   0.0000   0.0000   0.3475
   3.400   0.7350   0.00785   0.00242  -0.0733  0.5113  1.0000  -1.1529   0.0000   0.0000   0.0000   0.3458
   3.500   0.7452   0.00793   0.00247  -0.0731  0.5018  1.0000  -1.1739   0.0000   0.0000   0.0000   0.3441
   3.600   0.7551   0.00805   0.00253  -0.0729  0.4929  1.0000  -1.1971   0.0000   0.0000   0.0000   0.3424
   3.700   0.7657   0.00811   0.00259  -0.0728  0.4845  1.0000  -1.2219   0.0000   0.0000   0.0000   0.3409
   3.800   0.7759   0.00821   0.00265  -0.0726  0.4759  1.0000  -1.2464   0.0000   0.0000   0.0000   0.3393
   3.900   0.7859   0.00832   0.00271  -0.0724  0.4679  1.0000  -1.2708   0.0000   0.0000   0.0000   0.3377
   4.000   0.7964   0.00839   0.00277  -0.0723  0.4592  1.0000  -1.2959   0.0000   0.0000   0.0000   0.3363
   4.100   0.8064   0.00851   0.00286  -0.0721  0.4498  1.0000  -1.3205   0.0000   0.0000   0.0000   0.3348
   4.200   0.8165   0.00861   0.00293  -0.0719  0.4410  1.0000  -1.3454   0.0000   0.0000   0.0000   0.3334
   4.300   0.8267   0.00870   0.00300  -0.0717  0.4314  1.0000  -1.3705   0.0000   0.0000   0.0000   0.3320
   4.400   0.8364   0.00884   0.00308  -0.0715  0.4220  1.0000  -1.3951   0.0000   0.0000   0.0000   0.3306
   4.500   0.8469   0.00892   0.00315  -0.0713  0.4139  1.0000  -1.4278   0.0000   0.0000   0.0000   0.3293
   4.600   0.8570   0.00902   0.00323  -0.0712  0.4052  1.0000  -1.4628   0.0000   0.0000   0.0000   0.3280
   4.700   0.8667   0.00916   0.00331  -0.0709  0.3966  1.0000  -1.4974   0.0000   0.0000   0.0000   0.3267
   4.800   0.8771   0.00924   0.00339  -0.0708  0.3880  1.0000  -1.5333   0.0000   0.0000   0.0000   0.3255
   4.900   0.8869   0.00937   0.00347  -0.0706  0.3784  1.0000  -1.5684   0.0000   0.0000   0.0000   0.3243
   5.000   0.8968   0.00950   0.00356  -0.0704  0.3694  1.0000  -1.6040   0.0000   0.0000   0.0000   0.3231
   5.100   0.9068   0.00961   0.00365  -0.0702  0.3599  1.0000  -1.6400   0.0000   0.0000   0.0000   0.3219
   5.200   0.9163   0.00977   0.00375  -0.0700  0.3506  1.0000  -1.6752   0.0000   0.0000   0.0000   0.3207
   5.300   0.9266   0.00986   0.00384  -0.0698  0.3428  1.0000  -1.7158   0.0000   0.0000   0.0000   0.3196
   5.400   0.9365   0.00998   0.00394  -0.0696  0.3342  1.0000  -1.7574   0.0000   0.0000   0.0000   0.3185
   5.600   0.9562   0.01024   0.00417  -0.0692  0.3184  1.0000  -1.8781   0.0000   0.0000   0.0000   0.3163
   5.700   0.9660   0.01037   0.00428  -0.0690  0.3098  1.0000  -1.9571   0.0000   0.0000   0.0000   0.3153
   5.800   0.9754   0.01054   0.00440  -0.0687  0.3009  1.0000  -2.0357   0.0000   0.0000   0.0000   0.3142
   5.900   0.9854   0.01065   0.00450  -0.0686  0.2918  1.0000  -2.1183   0.0000   0.0000   0.0000   0.3132
   6.000   0.9946   0.01084   0.00463  -0.0683  0.2814  1.0000  -2.1985   0.0000   0.0000   0.0000   0.3122
   6.100   1.0043   0.01097   0.00474  -0.0681  0.2721  1.0000  -2.2820   0.0000   0.0000   0.0000   0.3112
   6.200   1.0137   0.01114   0.00487  -0.0678  0.2617  1.0000  -2.3651   0.0000   0.0000   0.0000   0.3102
   6.300   1.0230   0.01132   0.00500  -0.0676  0.2521  1.0000  -2.4485   0.0000   0.0000   0.0000   0.3092
   6.400   1.0326   0.01146   0.00512  -0.0674  0.2426  1.0000  -2.5347   0.0000   0.0000   0.0000   0.3083
   6.500   1.0414   0.01168   0.00527  -0.0670  0.2325  1.0000  -2.6180   0.0000   0.0000   0.0000   0.3073
   6.600   1.0512   0.01181   0.00539  -0.0668  0.2242  1.0000  -2.7066   0.0000   0.0000   0.0000   0.3064
   6.700   1.0603   0.01200   0.00553  -0.0666  0.2146  1.0000  -2.7931   0.0000   0.0000   0.0000   0.3055
   6.800   1.0695   0.01218   0.00568  -0.0663  0.2061  1.0000  -2.8804   0.0000   0.0000   0.0000   0.3046
   6.900   1.0791   0.01233   0.00584  -0.0661  0.1986  1.0000  -2.9729   0.0000   0.0000   0.0000   0.3037
   7.000   1.0880   0.01253   0.00599  -0.0658  0.1904  1.0000  -3.0626   0.0000   0.0000   0.0000   0.3028
   7.100   1.0972   0.01271   0.00615  -0.0655  0.1833  1.0000  -3.1530   0.0000   0.0000   0.0000   0.3019
   7.200   1.1067   0.01285   0.00629  -0.0653  0.1764  1.0000  -3.2456   0.0000   0.0000   0.0000   0.3011
   7.300   1.1156   0.01306   0.00646  -0.0650  0.1687  1.0000  -3.3358   0.0000   0.0000   0.0000   0.3002
   7.400   1.1245   0.01326   0.00663  -0.0646  0.1616  1.0000  -3.4267   0.0000   0.0000   0.0000   0.2993
   7.500   1.1340   0.01340   0.00678  -0.0644  0.1554  1.0000  -3.5210   0.0000   0.0000   0.0000   0.2985
   7.600   1.1427   0.01361   0.00695  -0.0641  0.1479  1.0000  -3.6129   0.0000   0.0000   0.0000   0.2977
   7.700   1.1512   0.01385   0.00714  -0.0637  0.1402  1.0000  -3.7036   0.0000   0.0000   0.0000   0.2968
   7.800   1.1605   0.01400   0.00730  -0.0635  0.1338  1.0000  -3.7990   0.0000   0.0000   0.0000   0.2960
   7.900   1.1688   0.01424   0.00748  -0.0631  0.1252  1.0000  -3.8907   0.0000   0.0000   0.0000   0.2952
   8.000   1.1772   0.01448   0.00768  -0.0627  0.1176  1.0000  -3.9827   0.0000   0.0000   0.0000   0.2944
   8.100   1.1862   0.01466   0.00786  -0.0624  0.1118  1.0000  -4.0778   0.0000   0.0000   0.0000   0.2936
   8.200   1.1946   0.01489   0.00805  -0.0621  0.1053  1.0000  -4.1703   0.0000   0.0000   0.0000   0.2928
   8.300   1.2026   0.01515   0.00828  -0.0617  0.0984  1.0000  -4.2610   0.0000   0.0000   0.0000   0.2920
   8.400   1.2116   0.01532   0.00846  -0.0614  0.0940  1.0000  -4.3566   0.0000   0.0000   0.0000   0.2912
   8.500   1.2198   0.01555   0.00867  -0.0610  0.0878  1.0000  -4.4485   0.0000   0.0000   0.0000   0.2904
   8.600   1.2273   0.01585   0.00894  -0.0605  0.0803  1.0000  -4.5354   0.0000   0.0000   0.0000   0.2896
   8.700   1.2358   0.01606   0.00915  -0.0601  0.0755  1.0000  -4.6273   0.0000   0.0000   0.0000   0.2888
   8.800   1.2436   0.01631   0.00938  -0.0597  0.0693  1.0000  -4.7155   0.0000   0.0000   0.0000   0.2880
   8.900   1.2505   0.01666   0.00967  -0.0591  0.0615  1.0000  -4.7968   0.0000   0.0000   0.0000   0.2871
   9.000   1.2582   0.01692   0.00992  -0.0586  0.0553  1.0000  -4.8797   0.0000   0.0000   0.0000   0.2863
   9.100   1.2640   0.01736   0.01027  -0.0579  0.0455  1.0000  -4.9494   0.0000   0.0000   0.0000   0.2854
   9.200   1.2697   0.01779   0.01064  -0.0572  0.0363  1.0000  -5.0124   0.0000   0.0000   0.0000   0.2845
   9.300   1.2744   0.01832   0.01110  -0.0563  0.0270  1.0000  -5.0612   0.0000   0.0000   0.0000   0.2835
   9.400   1.2779   0.01894   0.01166  -0.0552  0.0206  1.0000  -5.0933   0.0000   0.0000   0.0000   0.2824
   9.500   1.2847   0.01925   0.01200  -0.0545  0.0190  1.0000  -5.1551   0.0000   0.0000   0.0000   0.2815
   9.600   1.2910   0.01959   0.01237  -0.0538  0.0178  1.0000  -5.2175   0.0000   0.0000   0.0000   0.2806
   9.700   1.2969   0.01996   0.01275  -0.0531  0.0167  1.0000  -5.2799   0.0000   0.0000   0.0000   0.2797
   9.800   1.3023   0.02035   0.01316  -0.0522  0.0158  1.0000  -5.3490   0.0000   0.0000   0.0000   0.2787
   9.900   1.3070   0.02079   0.01362  -0.0513  0.0150  1.0000  -5.4253   0.0000   0.0000   0.0000   0.2777
  10.000   1.3108   0.02126   0.01415  -0.0502  0.0144  1.0000  -5.4921   0.0000   0.0000   0.0000   0.2767
  10.100   1.3129   0.02177   0.01472  -0.0488  0.0139  1.0000  -5.5475   0.0000   0.0000   0.0000   0.2754
  10.200   1.3141   0.02229   0.01530  -0.0473  0.0136  1.0000  -5.5992   0.0000   0.0000   0.0000   0.2741
  10.300   1.3179   0.02265   0.01570  -0.0463  0.0135  1.0000  -5.6774   0.0000   0.0000   0.0000   0.2730
  10.400   1.3213   0.02303   0.01613  -0.0451  0.0134  1.0000  -5.7533   0.0000   0.0000   0.0000   0.2720
  10.500   1.3244   0.02343   0.01658  -0.0440  0.0133  1.0000  -5.8273   0.0000   0.0000   0.0000   0.2709
  10.600   1.3273   0.02385   0.01705  -0.0429  0.0132  1.0000  -5.8998   0.0000   0.0000   0.0000   0.2698
  10.700   1.3300   0.02429   0.01754  -0.0417  0.0131  1.0000  -5.9705   0.0000   0.0000   0.0000   0.2687
  10.800   1.3323   0.02475   0.01805  -0.0406  0.0130  1.0000  -6.0394   0.0000   0.0000   0.0000   0.2677
  10.900   1.3345   0.02524   0.01859  -0.0395  0.0129  1.0000  -6.1072   0.0000   0.0000   0.0000   0.2666
  11.000   1.3364   0.02575   0.01918  -0.0383  0.0128  1.0000  -6.1707   0.0000   0.0000   0.0000   0.2656
  11.100   1.3381   0.02628   0.01976  -0.0372  0.0128  1.0000  -6.2347   0.0000   0.0000   0.0000   0.2646
  11.200   1.3398   0.02683   0.02036  -0.0361  0.0127  1.0000  -6.2995   0.0000   0.0000   0.0000   0.2636
  11.300   1.3414   0.02739   0.02097  -0.0351  0.0126  1.0000  -6.3642   0.0000   0.0000   0.0000   0.2626
  11.400   1.3428   0.02797   0.02160  -0.0341  0.0125  1.0000  -6.4286   0.0000   0.0000   0.0000   0.2617
  11.500   1.3443   0.02857   0.02225  -0.0331  0.0124  1.0000  -6.4937   0.0000   0.0000   0.0000   0.2608
  11.600   1.3457   0.02918   0.02291  -0.0322  0.0123  1.0000  -6.5583   0.0000   0.0000   0.0000   0.2599
  11.700   1.3469   0.02981   0.02359  -0.0313  0.0122  1.0000  -6.6229   0.0000   0.0000   0.0000   0.2590
  11.800   1.3483   0.03046   0.02429  -0.0304  0.0121  1.0000  -6.6883   0.0000   0.0000   0.0000   0.2582
  11.900   1.3494   0.03113   0.02501  -0.0295  0.0120  1.0000  -6.7526   0.0000   0.0000   0.0000   0.2574
  12.000   1.3504   0.03182   0.02575  -0.0287  0.0119  1.0000  -6.8168   0.0000   0.0000   0.0000   0.2566
  12.100   1.3515   0.03253   0.02651  -0.0280  0.0118  1.0000  -6.8810   0.0000   0.0000   0.0000   0.2559
  12.200   1.3523   0.03327   0.02730  -0.0273  0.0117  1.0000  -6.9437   0.0000   0.0000   0.0000   0.2551
  12.300   1.3531   0.03403   0.02811  -0.0266  0.0116  1.0000  -7.0064   0.0000   0.0000   0.0000   0.2545
  12.400   1.3537   0.03483   0.02895  -0.0259  0.0115  1.0000  -7.0675   0.0000   0.0000   0.0000   0.2538
  12.500   1.3541   0.03565   0.02983  -0.0253  0.0114  1.0000  -7.1269   0.0000   0.0000   0.0000   0.2532
  12.600   1.3544   0.03651   0.03074  -0.0247  0.0113  1.0000  -7.1847   0.0000   0.0000   0.0000   0.2526
  12.700   1.3544   0.03742   0.03169  -0.0242  0.0112  1.0000  -7.2394   0.0000   0.0000   0.0000   0.2520
  12.800   1.3543   0.03836   0.03269  -0.0237  0.0112  1.0000  -7.2921   0.0000   0.0000   0.0000   0.2514
  12.900   1.3539   0.03936   0.03375  -0.0232  0.0111  1.0000  -7.3410   0.0000   0.0000   0.0000   0.2509
  13.000   1.3535   0.04038   0.03483  -0.0228  0.0111  1.0000  -7.3894   0.0000   0.0000   0.0000   0.2504
  13.100   1.3529   0.04145   0.03596  -0.0224  0.0111  1.0000  -7.4360   0.0000   0.0000   0.0000   0.2500
  13.200   1.3523   0.04255   0.03711  -0.0221  0.0110  1.0000  -7.4818   0.0000   0.0000   0.0000   0.2496
  13.300   1.3515   0.04369   0.03831  -0.0219  0.0110  1.0000  -7.5257   0.0000   0.0000   0.0000   0.2492
  13.400   1.3506   0.04486   0.03954  -0.0216  0.0110  1.0000  -7.5682   0.0000   0.0000   0.0000   0.2489
  13.500   1.3495   0.04607   0.04081  -0.0215  0.0109  1.0000  -7.6093   0.0000   0.0000   0.0000   0.2486
  13.600   1.3483   0.04732   0.04212  -0.0213  0.0109  1.0000  -7.6488   0.0000   0.0000   0.0000   0.2483
  13.700   1.3471   0.04861   0.04347  -0.0213  0.0109  1.0000  -7.6871   0.0000   0.0000   0.0000   0.2481
  13.800   1.3457   0.04995   0.04487  -0.0213  0.0108  1.0000  -7.7235   0.0000   0.0000   0.0000   0.2479
  13.900   1.3442   0.05132   0.04631  -0.0213  0.0108  1.0000  -7.7586   0.0000   0.0000   0.0000   0.2478
  14.000   1.3425   0.05275   0.04780  -0.0214  0.0108  1.0000  -7.7913   0.0000   0.0000   0.0000   0.2477
  14.100   1.3407   0.05421   0.04932  -0.0216  0.0108  1.0000  -7.8229   0.0000   0.0000   0.0000   0.2476
  14.200   1.3387   0.05574   0.05091  -0.0218  0.0107  1.0000  -7.8514   0.0000   0.0000   0.0000   0.2476
  14.300   1.3365   0.05729   0.05252  -0.0220  0.0107  1.0000  -7.8785   0.0000   0.0000   0.0000   0.2476
  14.400   1.3341   0.05891   0.05421  -0.0224  0.0107  1.0000  -7.9021   0.0000   0.0000   0.0000   0.2477
  14.500   1.3316   0.06057   0.05593  -0.0227  0.0107  1.0000  -7.9250   0.0000   0.0000   0.0000   0.2478
  14.600   1.3289   0.06230   0.05773  -0.0232  0.0107  1.0000  -7.9443   0.0000   0.0000   0.0000   0.2480
  14.700   1.3261   0.06407   0.05957  -0.0237  0.0106  1.0000  -7.9628   0.0000   0.0000   0.0000   0.2482
  14.800   1.3230   0.06593   0.06149  -0.0243  0.0106  1.0000  -7.9773   0.0000   0.0000   0.0000   0.2485
  14.900   1.3200   0.06782   0.06344  -0.0249  0.0106  1.0000  -7.9909   0.0000   0.0000   0.0000   0.2488
  15.000   1.3166   0.06980   0.06549  -0.0256  0.0106  1.0000  -8.0002   0.0000   0.0000   0.0000   0.2492


