xflr5 v6.61

 Calculated polar for: SD7037-092-88

 1 1 Reynolds number fixed          Mach number fixed         

 xtrf =   1.000 (top)        1.000 (bottom)
 Mach =   0.000     Re =     0.025 e 6     Ncrit =   9.000

  alpha     CL        CD       CDp       Cm    Top Xtr Bot Xtr   Cpmin    Chinge    XCp    
 ------- -------- --------- --------- -------- ------- ------- -------- --------- ---------
 -10.000  -0.3598   0.12863   0.11846  -0.0047  1.0000  0.4544  -1.1479   0.0000   0.0000   0.0000   0.2291
  -9.900  -0.3739   0.13095   0.12085  -0.0037  1.0000  0.4574  -1.1718   0.0000   0.0000   0.0000   0.2325
  -9.800  -0.3454   0.12409   0.11394  -0.0048  1.0000  0.4675  -1.1281   0.0000   0.0000   0.0000   0.2280
  -9.700  -0.3458   0.12370   0.11357  -0.0043  1.0000  0.4771  -1.1286   0.0000   0.0000   0.0000   0.2296
  -9.600  -0.3603   0.12601   0.11597  -0.0031  1.0000  0.4819  -1.1516   0.0000   0.0000   0.0000   0.2339
  -9.500  -0.3361   0.12022   0.11013  -0.0042  1.0000  0.4913  -1.1157   0.0000   0.0000   0.0000   0.2296
  -9.400  -0.3356   0.11970   0.10964  -0.0036  1.0000  0.5020  -1.1143   0.0000   0.0000   0.0000   0.2314
  -9.300  -0.3515   0.12220   0.11222  -0.0020  1.0000  0.5070  -1.1383   0.0000   0.0000   0.0000   0.2366
  -9.200  -0.3243   0.11607   0.10603  -0.0034  1.0000  0.5182  -1.0985   0.0000   0.0000   0.0000   0.2313
  -9.100  -0.3293   0.11656   0.10657  -0.0024  1.0000  0.5290  -1.1048   0.0000   0.0000   0.0000   0.2349
  -9.000  -0.3254   0.11477   0.10482  -0.0022  1.0000  0.5357  -1.0999   0.0000   0.0000   0.0000   0.2352
  -8.900  -0.3132   0.11220   0.10222  -0.0025  1.0000  0.5483  -1.0815   0.0000   0.0000   0.0000   0.2340
  -8.800  -0.3290   0.11459   0.10469  -0.0004  1.0000  0.5564  -1.1027   0.0000   0.0000   0.0000   0.2411
  -8.700  -0.3040   0.10919   0.09925  -0.0020  1.0000  0.5684  -1.0679   0.0000   0.0000   0.0000   0.2353
  -8.600  -0.3137   0.11051   0.10063  -0.0002  1.0000  0.5802  -1.0794   0.0000   0.0000   0.0000   0.2415
  -8.500  -0.2962   0.10652   0.09663  -0.0013  1.0000  0.5903  -1.0561   0.0000   0.0000   0.0000   0.2374
  -8.400  -0.3008   0.10700   0.09715   0.0002  1.0000  0.6043  -1.0602   0.0000   0.0000   0.0000   0.2425
  -8.300  -0.2865   0.10364   0.09379  -0.0006  1.0000  0.6147  -1.0414   0.0000   0.0000   0.0000   0.2393
  -8.200  -0.2917   0.10427   0.09445   0.0010  1.0000  0.6296  -1.0461   0.0000   0.0000   0.0000   0.2453
  -8.100  -0.2745   0.10051   0.09069  -0.0002  1.0000  0.6410  -1.0242   0.0000   0.0000   0.0000   0.2405
  -8.000  -0.2857   0.10215   0.09238   0.0023  1.0000  0.6556  -1.0359   0.0000   0.0000   0.0000   0.2496
  -7.900  -0.2614   0.09737   0.08757   0.0001  1.0000  0.6700  -1.0060   0.0000   0.0000   0.0000   0.2415
  -7.800  -0.2618   0.09677   0.08701   0.0012  1.0000  0.6846  -1.0052   0.0000   0.0000   0.0000   0.2456
  -7.700  -0.2592   0.09624   0.08649   0.0021  1.0000  0.7043  -1.0000   0.0000   0.0000   0.0000   0.2494
  -7.600  -0.2417   0.09296   0.08319   0.0009  1.0000  0.7259  -0.9809   0.0000   0.0000   0.0000   0.2444
  -7.500  -0.2297   0.09073   0.08089   0.0005  1.0000  0.7500  -0.9802   0.0000   0.0000   0.0000   0.2424
  -7.400  -0.2212   0.08927   0.07943   0.0007  1.0000  0.7773  -0.9815   0.0000   0.0000   0.0000   0.2430
  -7.300  -0.2041   0.08626   0.07640  -0.0007  1.0000  0.8069  -0.9802   0.0000   0.0000   0.0000   0.2357
  -7.200  -0.1780   0.08225   0.07234  -0.0039  1.0000  0.8411  -0.9769   0.0000   0.0000   0.0000   0.2157
  -6.800  -0.1075   0.07140   0.06136  -0.0148  1.0000  0.9368  -0.9900   0.0000   0.0000   0.0000   0.0927
  -6.700  -0.0931   0.06923   0.05916  -0.0175  1.0000  0.9536  -0.9966   0.0000   0.0000   0.0000   0.0397
  -6.600  -0.0868   0.06777   0.05771  -0.0185  1.0000  0.9559  -1.0041   0.0000   0.0000   0.0000   0.0139
  -6.500  -0.0845   0.06686   0.05683  -0.0185  1.0000  0.9557  -1.0127   0.0000   0.0000   0.0000   0.0076
  -6.100  -0.1539   0.07130   0.06171  -0.0034  1.0000  0.8571  -1.0598   0.0000   0.0000   0.0000   0.2160
  -6.000  -0.1865   0.07372   0.06430   0.0013  1.0000  0.8065  -1.0784   0.0000   0.0000   0.0000   0.2477
  -5.900  -0.2208   0.07569   0.06646   0.0041  1.0000  0.7353  -1.1033   0.0000   0.0000   0.0000   0.2610
  -5.800  -0.2580   0.07821   0.06918   0.0068  1.0000  0.6793  -1.1323   0.0000   0.0000   0.0000   0.2701
  -5.700  -0.3092   0.07976   0.07101   0.0039  1.0000  0.5426  -1.1971   0.0000   0.0000   0.0000   0.2578
  -5.600  -0.3479   0.08152   0.07308   0.0056  1.0000  0.5090  -1.2379   0.0000   0.0000   0.0000   0.2623
  -5.400  -0.3871   0.07847   0.07023  -0.0063  1.0000  0.3656  -1.3818   0.0000   0.0000   0.0000   0.2308
  -5.300  -0.3978   0.07691   0.06872  -0.0109  1.0000  0.3371  -1.4494   0.0000   0.0000   0.0000   0.2199
  -5.200  -0.4016   0.07490   0.06664  -0.0166  1.0000  0.3070  -1.5200   0.0000   0.0000   0.0000   0.2061
  -5.100  -0.3941   0.07263   0.06440  -0.0163  1.0000  0.2949  -1.5121   0.0000   0.0000   0.0000   0.2060
  -5.000  -0.3940   0.07059   0.06229  -0.0201  1.0000  0.2780  -1.5597   0.0000   0.0000   0.0000   0.1963
  -4.900  -0.3911   0.06860   0.06029  -0.0216  1.0000  0.2684  -1.5768   0.0000   0.0000   0.0000   0.1924
  -4.800  -0.3876   0.06645   0.05800  -0.0255  1.0000  0.2550  -1.6230   0.0000   0.0000   0.0000   0.1817
  -4.700  -0.3829   0.06472   0.05627  -0.0258  1.0000  0.2498  -1.6289   0.0000   0.0000   0.0000   0.1803
  -4.600  -0.3782   0.06252   0.05397  -0.0284  1.0000  0.2416  -1.6642   0.0000   0.0000   0.0000   0.1725
  -4.500  -0.3701   0.06038   0.05156  -0.0322  1.0000  0.2324  -1.7122   0.0000   0.0000   0.0000   0.1606
  -4.400  -0.3643   0.05880   0.04996  -0.0323  1.0000  0.2304  -1.7181   0.0000   0.0000   0.0000   0.1588
  -4.300  -0.3581   0.05720   0.04831  -0.0329  1.0000  0.2286  -1.7276   0.0000   0.0000   0.0000   0.1557
  -4.200  -0.3513   0.05561   0.04663  -0.0336  1.0000  0.2273  -1.7390   0.0000   0.0000   0.0000   0.1518
  -4.100  -0.3439   0.05402   0.04495  -0.0345  1.0000  0.2264  -1.7510   0.0000   0.0000   0.0000   0.1472
  -4.000  -0.3360   0.05247   0.04328  -0.0354  1.0000  0.2261  -1.7628   0.0000   0.0000   0.0000   0.1422
  -3.900  -0.3277   0.05095   0.04163  -0.0363  1.0000  0.2263  -1.7742   0.0000   0.0000   0.0000   0.1368
  -3.800  -0.3188   0.04945   0.04000  -0.0372  1.0000  0.2268  -1.7854   0.0000   0.0000   0.0000   0.1309
  -3.700  -0.3094   0.04799   0.03837  -0.0381  1.0000  0.2276  -1.7966   0.0000   0.0000   0.0000   0.1244
  -3.600  -0.2995   0.04654   0.03675  -0.0389  1.0000  0.2284  -1.8081   0.0000   0.0000   0.0000   0.1174
  -3.500  -0.2890   0.04512   0.03513  -0.0398  1.0000  0.2293  -1.8201   0.0000   0.0000   0.0000   0.1097
  -3.400  -0.2781   0.04371   0.03343  -0.0406  1.0000  0.2301  -1.8326   0.0000   0.0000   0.0000   0.1012
  -3.300  -0.2665   0.04234   0.03183  -0.0414  1.0000  0.2310  -1.8452   0.0000   0.0000   0.0000   0.0917
  -3.200  -0.2550   0.04107   0.03029  -0.0421  1.0000  0.2324  -1.8582   0.0000   0.0000   0.0000   0.0821
  -3.100  -0.2430   0.03987   0.02878  -0.0428  1.0000  0.2345  -1.8730   0.0000   0.0000   0.0000   0.0711
  -3.000  -0.2354   0.03877   0.02776  -0.0422  1.0000  0.2405  -1.8640   0.0000   0.0000   0.0000   0.0676
  -2.900  -0.2269   0.03797   0.02693  -0.0418  1.0000  0.2496  -1.8575   0.0000   0.0000   0.0000   0.0625
  -2.800  -0.2142   0.03706   0.02564  -0.0425  1.0000  0.2596  -1.8712   0.0000   0.0000   0.0000   0.0483
  -2.700  -0.2066   0.03614   0.02487  -0.0417  1.0000  0.2711  -1.8584   0.0000   0.0000   0.0000   0.0448
  -2.600  -0.1935   0.03519   0.02357  -0.0422  1.0000  0.2828  -1.8730   0.0000   0.0000   0.0000   0.0286
  -2.500  -0.1842   0.03424   0.02271  -0.0417  1.0000  0.2969  -1.8713   0.0000   0.0000   0.0000   0.0205
  -2.400  -0.1748   0.03342   0.02189  -0.0412  1.0000  0.3193  -1.8718   0.0000   0.0000   0.0000   0.0108
  -2.300  -0.1651   0.03256   0.02105  -0.0407  1.0000  0.3448  -1.8753   0.0000   0.0000   0.0000   0.0001
  -2.200  -0.1541   0.03155   0.02006  -0.0402  1.0000  0.3731  -1.8854   0.0000   0.0000   0.0000  -0.0147
  -2.100  -0.1459   0.03067   0.01938  -0.0391  1.0000  0.4150  -1.8864   0.0000   0.0000   0.0000  -0.0219
  -2.000  -0.1389   0.02973   0.01876  -0.0375  1.0000  0.4661  -1.8880   0.0000   0.0000   0.0000  -0.0240
  -1.900  -0.1322   0.02864   0.01804  -0.0356  1.0000  0.5327  -1.8955   0.0000   0.0000   0.0000  -0.0232
  -1.800  -0.1325   0.02769   0.01772  -0.0318  1.0000  0.6091  -1.8986   0.0000   0.0000   0.0000   0.0059
  -1.700  -0.1372   0.02673   0.01743  -0.0267  1.0000  0.6960  -1.9077   0.0000   0.0000   0.0000   0.0512
  -1.600  -0.0863   0.02457   0.01446  -0.0341  1.0000  1.0000  -1.8491   0.0000   0.0000   0.0000  -0.1512
  -1.500  -0.0769   0.02463   0.01415  -0.0343  1.0000  1.0000  -1.7983   0.0000   0.0000   0.0000  -0.2019
  -1.400  -0.0680   0.02471   0.01391  -0.0343  1.0000  1.0000  -1.7460   0.0000   0.0000   0.0000  -0.2604
  -1.300  -0.0595   0.02480   0.01366  -0.0342  1.0000  1.0000  -1.6952   0.0000   0.0000   0.0000  -0.3326
  -1.200  -0.0511   0.02489   0.01351  -0.0341  1.0000  1.0000  -1.6408   0.0000   0.0000   0.0000  -0.4258
  -1.100  -0.0428   0.02500   0.01339  -0.0340  1.0000  1.0000  -1.5859   0.0000   0.0000   0.0000  -0.5524
  -1.000  -0.0347   0.02511   0.01329  -0.0339  1.0000  1.0000  -1.5309   0.0000   0.0000   0.0000  -0.7359
  -0.900  -0.0267   0.02524   0.01322  -0.0337  1.0000  1.0000  -1.4757   0.0000   0.0000   0.0000  -1.0268
  -0.800  -0.0187   0.02537   0.01317  -0.0336  1.0000  1.0000  -1.4207   0.0000   0.0000   0.0000  -1.5605
  -0.700  -0.0108   0.02551   0.01314  -0.0334  1.0000  1.0000  -1.3659   0.0000   0.0000   0.0000  -2.8616
  -0.600  -0.0030   0.02566   0.01312  -0.0333  1.0000  1.0000  -1.3112   0.0000   0.0000   0.0000  -10.8420
  -0.500   0.0047   0.02582   0.01312  -0.0331  1.0000  1.0000  -1.2570   0.0000   0.0000   0.0000   7.3194
  -0.400   0.0124   0.02598   0.01314  -0.0330  1.0000  1.0000  -1.2031   0.0000   0.0000   0.0000   2.9269
  -0.300   0.0200   0.02615   0.01318  -0.0328  1.0000  1.0000  -1.1496   0.0000   0.0000   0.0000   1.8997
  -0.200   0.0275   0.02634   0.01322  -0.0327  1.0000  1.0000  -1.0965   0.0000   0.0000   0.0000   1.4415
  -0.100   0.0350   0.02653   0.01329  -0.0326  1.0000  1.0000  -1.0440   0.0000   0.0000   0.0000   1.1820
   0.000   0.0424   0.02673   0.01337  -0.0324  1.0000  1.0000  -0.9918   0.0000   0.0000   0.0000   1.0151
   0.100   0.0498   0.02693   0.01346  -0.0323  1.0000  1.0000  -0.9401   0.0000   0.0000   0.0000   0.8988
   0.200   0.0571   0.02715   0.01357  -0.0322  1.0000  1.0000  -0.8885   0.0000   0.0000   0.0000   0.8131
   0.300   0.0643   0.02738   0.01364  -0.0320  1.0000  1.0000  -0.8334   0.0000   0.0000   0.0000   0.7472
   0.400   0.0715   0.02761   0.01378  -0.0319  1.0000  1.0000  -0.7840   0.0000   0.0000   0.0000   0.6953
   0.500   0.0786   0.02786   0.01393  -0.0318  1.0000  1.0000  -0.7353   0.0000   0.0000   0.0000   0.6532
   0.600   0.0856   0.02811   0.01410  -0.0317  1.0000  1.0000  -0.6944   0.0000   0.0000   0.0000   0.6184
   0.700   0.0926   0.02837   0.01428  -0.0316  1.0000  1.0000  -0.6559   0.0000   0.0000   0.0000   0.5892
   0.800   0.0995   0.02865   0.01447  -0.0315  1.0000  1.0000  -0.6180   0.0000   0.0000   0.0000   0.5644
   0.900   0.1064   0.02893   0.01468  -0.0314  1.0000  1.0000  -0.5806   0.0000   0.0000   0.0000   0.5430
   1.000   0.1132   0.02922   0.01490  -0.0314  1.0000  1.0000  -0.5437   0.0000   0.0000   0.0000   0.5245
   1.100   0.1199   0.02953   0.01513  -0.0313  1.0000  1.0000  -0.5074   0.0000   0.0000   0.0000   0.5082
   1.200   0.1266   0.02984   0.01538  -0.0312  1.0000  1.0000  -0.4717   0.0000   0.0000   0.0000   0.4939
   1.300   0.1332   0.03017   0.01565  -0.0312  1.0000  1.0000  -0.4624   0.0000   0.0000   0.0000   0.4811
   1.400   0.1398   0.03050   0.01592  -0.0312  1.0000  1.0000  -0.4689   0.0000   0.0000   0.0000   0.4698
   1.500   0.1463   0.03085   0.01622  -0.0311  1.0000  1.0000  -0.4754   0.0000   0.0000   0.0000   0.4596
   1.600   0.1527   0.03120   0.01652  -0.0311  1.0000  1.0000  -0.4817   0.0000   0.0000   0.0000   0.4504
   1.700   0.1591   0.03157   0.01684  -0.0311  1.0000  1.0000  -0.4880   0.0000   0.0000   0.0000   0.4420
   1.800   0.1654   0.03195   0.01718  -0.0311  1.0000  1.0000  -0.4941   0.0000   0.0000   0.0000   0.4345
   1.900   0.1716   0.03234   0.01753  -0.0311  1.0000  1.0000  -0.5002   0.0000   0.0000   0.0000   0.4276
   2.000   0.1778   0.03274   0.01789  -0.0311  1.0000  1.0000  -0.5061   0.0000   0.0000   0.0000   0.4214
   2.100   0.1840   0.03316   0.01825  -0.0312  1.0000  1.0000  -0.5120   0.0000   0.0000   0.0000   0.4156
   2.200   0.1901   0.03359   0.01864  -0.0312  1.0000  1.0000  -0.5187   0.0000   0.0000   0.0000   0.4103
   2.300   0.1961   0.03402   0.01904  -0.0313  1.0000  1.0000  -0.5253   0.0000   0.0000   0.0000   0.4055
   2.400   0.2020   0.03447   0.01947  -0.0313  1.0000  1.0000  -0.5318   0.0000   0.0000   0.0000   0.4011
   2.500   0.2079   0.03494   0.01990  -0.0314  1.0000  1.0000  -0.5381   0.0000   0.0000   0.0000   0.3970
   2.600   0.2138   0.03541   0.02035  -0.0315  1.0000  1.0000  -0.5443   0.0000   0.0000   0.0000   0.3932
   2.700   0.2195   0.03590   0.02082  -0.0316  1.0000  1.0000  -0.5503   0.0000   0.0000   0.0000   0.3897
   2.800   0.2252   0.03640   0.02130  -0.0317  1.0000  1.0000  -0.5563   0.0000   0.0000   0.0000   0.3864
   2.900   0.2309   0.03691   0.02180  -0.0318  1.0000  1.0000  -0.5620   0.0000   0.0000   0.0000   0.3835
   3.000   0.2365   0.03744   0.02231  -0.0320  1.0000  1.0000  -0.5677   0.0000   0.0000   0.0000   0.3807
   3.100   0.2420   0.03798   0.02283  -0.0321  1.0000  1.0000  -0.5745   0.0000   0.0000   0.0000   0.3781
   3.200   0.2475   0.03853   0.02338  -0.0323  1.0000  1.0000  -0.5811   0.0000   0.0000   0.0000   0.3757
   3.300   0.2529   0.03909   0.02393  -0.0324  1.0000  1.0000  -0.5875   0.0000   0.0000   0.0000   0.3735
   3.400   0.2583   0.03967   0.02451  -0.0326  1.0000  1.0000  -0.5938   0.0000   0.0000   0.0000   0.3715
   3.500   0.2636   0.04026   0.02509  -0.0328  1.0000  1.0000  -0.5999   0.0000   0.0000   0.0000   0.3696
   3.600   0.2689   0.04087   0.02570  -0.0330  1.0000  1.0000  -0.6059   0.0000   0.0000   0.0000   0.3679
   3.700   0.2741   0.04149   0.02632  -0.0332  1.0000  1.0000  -0.6117   0.0000   0.0000   0.0000   0.3662
   3.800   0.2793   0.04212   0.02695  -0.0335  1.0000  1.0000  -0.6174   0.0000   0.0000   0.0000   0.3647
   3.900   0.2844   0.04277   0.02760  -0.0337  1.0000  1.0000  -0.6229   0.0000   0.0000   0.0000   0.3634
   4.000   0.2895   0.04343   0.02827  -0.0340  1.0000  1.0000  -0.6282   0.0000   0.0000   0.0000   0.3621
   4.100   0.2945   0.04411   0.02897  -0.0342  1.0000  1.0000  -0.6339   0.0000   0.0000   0.0000   0.3609
   4.200   0.2995   0.04480   0.02966  -0.0345  1.0000  1.0000  -0.6404   0.0000   0.0000   0.0000   0.3598
   4.300   0.3230   0.04642   0.03132  -0.0385  0.9875  1.0000  -0.6624   0.0000   0.0000   0.0000   0.3638
   4.400   0.3528   0.04845   0.03338  -0.0433  0.9723  1.0000  -0.6905   0.0000   0.0000   0.0000   0.3675
   4.500   0.3643   0.04928   0.03427  -0.0449  0.9611  1.0000  -0.7020   0.0000   0.0000   0.0000   0.3680
   4.600   0.3892   0.05096   0.03599  -0.0487  0.9463  1.0000  -0.7260   0.0000   0.0000   0.0000   0.3697
   4.700   0.4038   0.05198   0.03706  -0.0506  0.9339  1.0000  -0.7406   0.0000   0.0000   0.0000   0.3699
   4.800   0.4229   0.05334   0.03847  -0.0531  0.9213  1.0000  -0.7600   0.0000   0.0000   0.0000   0.3703
   4.900   0.4348   0.05427   0.03945  -0.0545  0.9106  1.0000  -0.7747   0.0000   0.0000   0.0000   0.3699
   5.000   0.4544   0.05562   0.04085  -0.0569  0.8976  1.0000  -0.7978   0.0000   0.0000   0.0000   0.3698
   5.100   0.4650   0.05648   0.04177  -0.0579  0.8866  1.0000  -0.8113   0.0000   0.0000   0.0000   0.3691
   5.200   0.4839   0.05776   0.04310  -0.0601  0.8734  1.0000  -0.8338   0.0000   0.0000   0.0000   0.3687
   5.300   0.4917   0.05857   0.04402  -0.0606  0.8639  1.0000  -0.8442   0.0000   0.0000   0.0000   0.3678
   5.400   0.5128   0.05993   0.04545  -0.0630  0.8511  1.0000  -0.8693   0.0000   0.0000   0.0000   0.3673
   5.500   0.5164   0.06063   0.04619  -0.0629  0.8423  1.0000  -0.8749   0.0000   0.0000   0.0000   0.3662
   5.600   0.5405   0.06199   0.04763  -0.0654  0.8279  1.0000  -0.9036   0.0000   0.0000   0.0000   0.3654
   5.700   0.5415   0.06267   0.04834  -0.0650  0.8198  1.0000  -0.9077   0.0000   0.0000   0.0000   0.3644
   5.800   0.5684   0.06408   0.04985  -0.0677  0.8054  1.0000  -0.9453   0.0000   0.0000   0.0000   0.3634
   5.900   0.5655   0.06478   0.05057  -0.0670  0.7994  1.0000  -0.9441   0.0000   0.0000   0.0000   0.3625
   6.000   0.5769   0.06577   0.05162  -0.0678  0.7890  1.0000  -0.9616   0.0000   0.0000   0.0000   0.3616
   6.100   0.5901   0.06684   0.05276  -0.0687  0.7776  1.0000  -0.9817   0.0000   0.0000   0.0000   0.3604
   6.200   0.5949   0.06771   0.05367  -0.0687  0.7685  1.0000  -0.9905   0.0000   0.0000   0.0000   0.3594
   6.300   0.6150   0.06890   0.05495  -0.0702  0.7555  1.0000  -1.0197   0.0000   0.0000   0.0000   0.3581
   6.400   0.6135   0.06981   0.05589  -0.0697  0.7497  1.0000  -1.0193   0.0000   0.0000   0.0000   0.3575
   6.500   0.6256   0.07092   0.05707  -0.0705  0.7404  1.0000  -1.0372   0.0000   0.0000   0.0000   0.3565
   6.600   0.6370   0.07207   0.05828  -0.0712  0.7305  1.0000  -1.0588   0.0000   0.0000   0.0000   0.3554
   6.700   0.6366   0.07302   0.05927  -0.0708  0.7239  1.0000  -1.0614   0.0000   0.0000   0.0000   0.3548
   6.800   0.6610   0.07413   0.06060  -0.0722  0.7082  1.0000  -1.1043   0.0000   0.0000   0.0000   0.3528
   6.900   0.6567   0.07513   0.06162  -0.0715  0.7028  1.0000  -1.1003   0.0000   0.0000   0.0000   0.3525
   7.000   0.6630   0.07622   0.06277  -0.0718  0.6948  1.0000  -1.1132   0.0000   0.0000   0.0000   0.3517
   7.100   0.6825   0.07758   0.06423  -0.0730  0.6845  1.0000  -1.1491   0.0000   0.0000   0.0000   0.3503
   7.200   0.6778   0.07877   0.06544  -0.0725  0.6814  1.0000  -1.1441   0.0000   0.0000   0.0000   0.3503
   7.300   0.6764   0.07996   0.06665  -0.0723  0.6770  1.0000  -1.1451   0.0000   0.0000   0.0000   0.3502
   7.400   0.7024   0.08109   0.06791  -0.0734  0.6606  1.0000  -1.1993   0.0000   0.0000   0.0000   0.3477
   7.500   0.6961   0.08226   0.06909  -0.0729  0.6568  1.0000  -1.1911   0.0000   0.0000   0.0000   0.3478
   7.600   0.6955   0.08341   0.07027  -0.0727  0.6509  1.0000  -1.1935   0.0000   0.0000   0.0000   0.3475
   7.700   0.7191   0.08456   0.07156  -0.0735  0.6358  1.0000  -1.2433   0.0000   0.0000   0.0000   0.3451
   7.800   0.7154   0.08602   0.07303  -0.0734  0.6342  1.0000  -1.2378   0.0000   0.0000   0.0000   0.3455
   7.900   0.7134   0.08754   0.07458  -0.0736  0.6331  1.0000  -1.2349   0.0000   0.0000   0.0000   0.3459
   8.000   0.7118   0.08905   0.07611  -0.0737  0.6319  1.0000  -1.2328   0.0000   0.0000   0.0000   0.3462
   8.100   0.7107   0.09053   0.07762  -0.0739  0.6303  1.0000  -1.2314   0.0000   0.0000   0.0000   0.3465
   8.200   0.7104   0.09197   0.07909  -0.0740  0.6279  1.0000  -1.2318   0.0000   0.0000   0.0000   0.3467
   8.300   0.7318   0.09320   0.08044  -0.0744  0.6109  1.0000  -1.2769   0.0000   0.0000   0.0000   0.3442
   8.400   0.7277   0.09457   0.08182  -0.0743  0.6084  1.0000  -1.2700   0.0000   0.0000   0.0000   0.3445
   8.500   0.7258   0.09593   0.08321  -0.0743  0.6051  1.0000  -1.2670   0.0000   0.0000   0.0000   0.3446
   8.600   0.7271   0.09735   0.08467  -0.0745  0.6010  1.0000  -1.2698   0.0000   0.0000   0.0000   0.3446
   8.700   0.7266   0.09900   0.08636  -0.0748  0.6011  1.0000  -1.2676   0.0000   0.0000   0.0000   0.3451
   8.800   0.7248   0.10092   0.08830  -0.0755  0.6057  1.0000  -1.2609   0.0000   0.0000   0.0000   0.3462
   8.900   0.7280   0.10307   0.09049  -0.0765  0.6100  1.0000  -1.2628   0.0000   0.0000   0.0000   0.3470
   9.000   0.7378   0.10565   0.09315  -0.0780  0.6136  1.0000  -1.2784   0.0000   0.0000   0.0000   0.3476
  10.800   0.7016   0.13393   0.12188  -0.0871  0.7150  1.0000  -1.2258   0.0000   0.0000   0.0000   0.3638
  10.900   0.7088   0.13642   0.12441  -0.0879  0.7083  1.0000  -1.2523   0.0000   0.0000   0.0000   0.3636
  11.000   0.7056   0.13621   0.12423  -0.0871  0.6972  1.0000  -1.2536   0.0000   0.0000   0.0000   0.3630
  11.100   0.7241   0.14042   0.12865  -0.0889  0.6851  1.0000  -1.3100   0.0000   0.0000   0.0000   0.3623
  11.200   0.7166   0.13962   0.12786  -0.0878  0.6771  1.0000  -1.2990   0.0000   0.0000   0.0000   0.3620
  11.300   0.7276   0.14213   0.13046  -0.0888  0.6671  1.0000  -1.3356   0.0000   0.0000   0.0000   0.3614
  11.400   0.7447   0.14691   0.13532  -0.0907  0.6622  1.0000  -1.3853   0.0000   0.0000   0.0000   0.3612
  11.500   0.7347   0.14583   0.13423  -0.0897  0.6589  1.0000  -1.3661   0.0000   0.0000   0.0000   0.3612
  11.600   0.7325   0.14604   0.13448  -0.0893  0.6514  1.0000  -1.3673   0.0000   0.0000   0.0000   0.3610
  11.700   0.7412   0.14839   0.13689  -0.0901  0.6440  1.0000  -1.3964   0.0000   0.0000   0.0000   0.3606
  11.800   0.7626   0.15426   0.14287  -0.0924  0.6383  1.0000  -1.4623   0.0000   0.0000   0.0000   0.3601
  11.900   0.7515   0.15281   0.14141  -0.0913  0.6354  1.0000  -1.4380   0.0000   0.0000   0.0000   0.3604
  12.000   0.7476   0.15257   0.14118  -0.0908  0.6274  1.0000  -1.4358   0.0000   0.0000   0.0000   0.3602
  12.100   0.7749   0.15918   0.14793  -0.0930  0.6140  1.0000  -1.5271   0.0000   0.0000   0.0000   0.3588
  12.200   0.7634   0.15750   0.14623  -0.0920  0.6107  1.0000  -1.5005   0.0000   0.0000   0.0000   0.3591
  12.300   0.7619   0.15751   0.14627  -0.0916  0.5999  1.0000  -1.5059   0.0000   0.0000   0.0000   0.3587
  12.400   0.7822   0.16288   0.15174  -0.0931  0.5889  1.0000  -1.5755   0.0000   0.0000   0.0000   0.3575
  12.500   0.7728   0.16153   0.15039  -0.0924  0.5842  1.0000  -1.5544   0.0000   0.0000   0.0000   0.3579
  12.600   0.7739   0.16236   0.15125  -0.0924  0.5765  1.0000  -1.5653   0.0000   0.0000   0.0000   0.3576
  12.700   0.7859   0.16567   0.15465  -0.0933  0.5695  1.0000  -1.6077   0.0000   0.0000   0.0000   0.3569
  12.800   0.7999   0.17058   0.15963  -0.0946  0.5653  1.0000  -1.6534   0.0000   0.0000   0.0000   0.3564
  12.900   0.7901   0.16905   0.15808  -0.0941  0.5623  1.0000  -1.6296   0.0000   0.0000   0.0000   0.3570
  13.000   0.7871   0.16895   0.15800  -0.0939  0.5559  1.0000  -1.6262   0.0000   0.0000   0.0000   0.3571
  13.100   0.7930   0.17091   0.16001  -0.0944  0.5490  1.0000  -1.6495   0.0000   0.0000   0.0000   0.3567
  13.200   0.8178   0.17852   0.16779  -0.0961  0.5418  1.0000  -1.7255   0.0000   0.0000   0.0000   0.3552
  13.300   0.8083   0.17696   0.16617  -0.0957  0.5397  1.0000  -1.7011   0.0000   0.0000   0.0000   0.3560
  13.400   0.8016   0.17581   0.16501  -0.0954  0.5341  1.0000  -1.6858   0.0000   0.0000   0.0000   0.3564
  13.500   0.8083   0.17769   0.16695  -0.0957  0.5238  1.0000  -1.7111   0.0000   0.0000   0.0000   0.3557
  13.600   0.8213   0.18233   0.17167  -0.0964  0.5159  1.0000  -1.7523   0.0000   0.0000   0.0000   0.3546
  13.700   0.8137   0.18083   0.17015  -0.0962  0.5107  1.0000  -1.7331   0.0000   0.0000   0.0000   0.3553
  13.800   0.8195   0.18248   0.17186  -0.0963  0.4999  1.0000  -1.7548   0.0000   0.0000   0.0000   0.3546
  13.900   0.8410   0.18993   0.17942  -0.0975  0.4931  1.0000  -1.8157   0.0000   0.0000   0.0000   0.3529
  14.000   0.8320   0.18812   0.17758  -0.0974  0.4911  1.0000  -1.7907   0.0000   0.0000   0.0000   0.3539
  14.100   0.8269   0.18725   0.17670  -0.0975  0.4862  1.0000  -1.7769   0.0000   0.0000   0.0000   0.3546
  14.200   0.8293   0.18838   0.17796  -0.0978  0.4797  1.0000  -1.7840   0.0000   0.0000   0.0000   0.3544
  14.300   0.8396   0.19184   0.18151  -0.0983  0.4733  1.0000  -1.8121   0.0000   0.0000   0.0000   0.3535
  14.400   0.8556   0.19849   0.18824  -0.0992  0.4690  1.0000  -1.8506   0.0000   0.0000   0.0000   0.3524
  14.500   0.8472   0.19650   0.18622  -0.0993  0.4670  1.0000  -1.8260   0.0000   0.0000   0.0000   0.3535
  14.600   0.8425   0.19553   0.18524  -0.0995  0.4624  1.0000  -1.8114   0.0000   0.0000   0.0000   0.3542
  14.700   0.8447   0.19656   0.18631  -0.0998  0.4556  1.0000  -1.8150   0.0000   0.0000   0.0000   0.3542
  14.800   0.8691   0.20558   0.19546  -0.1004  0.4449  1.0000  -1.8730   0.0000   0.0000   0.0000   0.3515
  14.900   0.8607   0.20336   0.19320  -0.1006  0.4430  1.0000  -1.8475   0.0000   0.0000   0.0000   0.3527
  15.000   0.8553   0.20192   0.19174  -0.1009  0.4378  1.0000  -1.8301   0.0000   0.0000   0.0000   0.3536
  15.100   0.8619   0.20393   0.19382  -0.1010  0.4272  1.0000  -1.8435   0.0000   0.0000   0.0000   0.3527
  15.200   0.8789   0.21133   0.20129  -0.1015  0.4205  1.0000  -1.8752   0.0000   0.0000   0.0000   0.3510
  15.300   0.8720   0.20938   0.19931  -0.1019  0.4185  1.0000  -1.8518   0.0000   0.0000   0.0000   0.3522
  15.400   0.8684   0.20850   0.19843  -0.1023  0.4140  1.0000  -1.8362   0.0000   0.0000   0.0000   0.3530
  15.500   0.8706   0.20955   0.19950  -0.1027  0.4080  1.0000  -1.8334   0.0000   0.0000   0.0000   0.3531
  15.600   0.8795   0.21301   0.20302  -0.1030  0.4017  1.0000  -1.8448   0.0000   0.0000   0.0000   0.3521
  15.700   0.8962   0.22117   0.21126  -0.1035  0.3969  1.0000  -1.8664   0.0000   0.0000   0.0000   0.3504
  15.800   0.8893   0.21889   0.20894  -0.1040  0.3953  1.0000  -1.8422   0.0000   0.0000   0.0000   0.3518
  15.900   0.8846   0.21732   0.20736  -0.1046  0.3917  1.0000  -1.8224   0.0000   0.0000   0.0000   0.3529
  16.000   0.8854   0.21774   0.20778  -0.1050  0.3851  1.0000  -1.8143   0.0000   0.0000   0.0000   0.3531
  16.100   0.9094   0.22831   0.21847  -0.1047  0.3730  1.0000  -1.8512   0.0000   0.0000   0.0000   0.3496
  16.200   0.9028   0.22587   0.21600  -0.1054  0.3716  1.0000  -1.8267   0.0000   0.0000   0.0000   0.3511
  16.300   0.8979   0.22402   0.21411  -0.1061  0.3682  1.0000  -1.8055   0.0000   0.0000   0.0000   0.3523
  16.400   0.8983   0.22417   0.21427  -0.1066  0.3617  1.0000  -1.7952   0.0000   0.0000   0.0000   0.3527
  16.500   0.9060   0.22724   0.21739  -0.1067  0.3547  1.0000  -1.7996   0.0000   0.0000   0.0000   0.3517
  16.600   0.9270   0.23832   0.22856  -0.1067  0.3494  1.0000  -1.8231   0.0000   0.0000   0.0000   0.3490
  16.700   0.9211   0.23590   0.22611  -0.1075  0.3484  1.0000  -1.7992   0.0000   0.0000   0.0000   0.3504
  16.800   0.9164   0.23387   0.22404  -0.1084  0.3465  1.0000  -1.7772   0.0000   0.0000   0.0000   0.3518
  16.900   0.9144   0.23305   0.22320  -0.1092  0.3427  1.0000  -1.7606   0.0000   0.0000   0.0000   0.3527
  17.000   0.9163   0.23385   0.22402  -0.1097  0.3376  1.0000  -1.7516   0.0000   0.0000   0.0000   0.3529
  17.100   0.9227   0.23652   0.22673  -0.1099  0.3317  1.0000  -1.7525   0.0000   0.0000   0.0000   0.3522
  17.200   0.9412   0.24689   0.23718  -0.1095  0.3253  1.0000  -1.7761   0.0000   0.0000   0.0000   0.3495
  17.300   0.9360   0.24433   0.23458  -0.1106  0.3241  1.0000  -1.7540   0.0000   0.0000   0.0000   0.3510
  17.400   0.9323   0.24232   0.23253  -0.1116  0.3215  1.0000  -1.7354   0.0000   0.0000   0.0000   0.3523
  17.500   0.9319   0.24192   0.23213  -0.1123  0.3165  1.0000  -1.7274   0.0000   0.0000   0.0000   0.3530
  17.600   0.9361   0.24355   0.23378  -0.1127  0.3103  1.0000  -1.7343   0.0000   0.0000   0.0000   0.3527
  17.700   0.9514   0.25136   0.24169  -0.1121  0.3035  1.0000  -1.7753   0.0000   0.0000   0.0000   0.3501
  17.800   0.9586   0.25669   0.24702  -0.1125  0.3015  1.0000  -1.7863   0.0000   0.0000   0.0000   0.3496
  17.900   0.9547   0.25439   0.24469  -0.1136  0.3006  1.0000  -1.7662   0.0000   0.0000   0.0000   0.3510
  18.000   0.9519   0.25260   0.24287  -0.1147  0.2987  1.0000  -1.7490   0.0000   0.0000   0.0000   0.3523
  18.100   0.9513   0.25198   0.24223  -0.1157  0.2956  1.0000  -1.7384   0.0000   0.0000   0.0000   0.3532
  18.300   0.9566   0.25419   0.24454  -0.1169  0.2880  1.0000  -1.7392   0.0000   0.0000   0.0000   0.3535
  18.400   0.9621   0.25678   0.24717  -0.1172  0.2843  1.0000  -1.7493   0.0000   0.0000   0.0000   0.3530
  18.500   0.9716   0.26217   0.25262  -0.1171  0.2807  1.0000  -1.7722   0.0000   0.0000   0.0000   0.3516
  18.600   0.9840   0.27151   0.26200  -0.1170  0.2781  1.0000  -1.7999   0.0000   0.0000   0.0000   0.3499
  18.700   0.9804   0.26881   0.25926  -0.1182  0.2774  1.0000  -1.7798   0.0000   0.0000   0.0000   0.3513
  18.800   0.9777   0.26651   0.25693  -0.1194  0.2761  1.0000  -1.7616   0.0000   0.0000   0.0000   0.3527
  18.900   0.9765   0.26513   0.25553  -0.1206  0.2736  1.0000  -1.7480   0.0000   0.0000   0.0000   0.3538
  19.000   0.9775   0.26513   0.25553  -0.1215  0.2701  1.0000  -1.7420   0.0000   0.0000   0.0000   0.3544
  19.100   0.9803   0.26624   0.25664  -0.1221  0.2661  1.0000  -1.7431   0.0000   0.0000   0.0000   0.3545
  19.200   0.9852   0.26847   0.25890  -0.1224  0.2619  1.0000  -1.7520   0.0000   0.0000   0.0000   0.3541
  19.300   0.9955   0.27465   0.26515  -0.1220  0.2572  1.0000  -1.7808   0.0000   0.0000   0.0000   0.3523
  19.400   1.0062   0.28368   0.27421  -0.1218  0.2546  1.0000  -1.8053   0.0000   0.0000   0.0000   0.3508
  19.500   1.0033   0.28080   0.27130  -0.1232  0.2538  1.0000  -1.7855   0.0000   0.0000   0.0000   0.3522
  19.600   1.0012   0.27839   0.26886  -0.1245  0.2525  1.0000  -1.7676   0.0000   0.0000   0.0000   0.3536
  19.700   1.0006   0.27699   0.26744  -0.1257  0.2501  1.0000  -1.7544   0.0000   0.0000   0.0000   0.3546
  19.800   1.0018   0.27700   0.26745  -0.1267  0.2468  1.0000  -1.7484   0.0000   0.0000   0.0000   0.3552
  19.900   1.0046   0.27802   0.26847  -0.1274  0.2433  1.0000  -1.7484   0.0000   0.0000   0.0000   0.3554
  20.000   1.0086   0.27981   0.27028  -0.1279  0.2399  1.0000  -1.7533   0.0000   0.0000   0.0000   0.3552


