xflr5 v6.61

 Calculated polar for: SD7037-092-88

 1 1 Reynolds number fixed          Mach number fixed         

 xtrf =   1.000 (top)        1.000 (bottom)
 Mach =   0.000     Re =     0.125 e 6     Ncrit =   9.000

  alpha     CL        CD       CDp       Cm    Top Xtr Bot Xtr   Cpmin    Chinge    XCp    
 ------- -------- --------- --------- -------- ------- ------- -------- --------- ---------
 -10.000  -0.3645   0.11271   0.10803  -0.0279  1.0000  0.0608  -1.4510   0.0000   0.0000   0.0000   0.1662
  -9.900  -0.3633   0.11154   0.10687  -0.0283  1.0000  0.0616  -1.4587   0.0000   0.0000   0.0000   0.1650
  -9.800  -0.3624   0.11039   0.10574  -0.0287  1.0000  0.0625  -1.4683   0.0000   0.0000   0.0000   0.1638
  -9.700  -0.3618   0.10926   0.10462  -0.0292  1.0000  0.0634  -1.4803   0.0000   0.0000   0.0000   0.1624
  -9.600  -0.3615   0.10817   0.10355  -0.0297  1.0000  0.0643  -1.4955   0.0000   0.0000   0.0000   0.1609
  -9.500  -0.3618   0.10715   0.10256  -0.0304  1.0000  0.0653  -1.5156   0.0000   0.0000   0.0000   0.1592
  -9.400  -0.3630   0.10627   0.10170  -0.0313  1.0000  0.0663  -1.5428   0.0000   0.0000   0.0000   0.1571
  -9.300  -0.3652   0.10559   0.10105  -0.0325  1.0000  0.0671  -1.5783   0.0000   0.0000   0.0000   0.1547
  -9.200  -0.3682   0.10506   0.10056  -0.0337  1.0000  0.0678  -1.6182   0.0000   0.0000   0.0000   0.1521
  -9.100  -0.3710   0.10455   0.10008  -0.0349  1.0000  0.0683  -1.6551   0.0000   0.0000   0.0000   0.1498
  -9.000  -0.3739   0.10394   0.09951  -0.0359  1.0000  0.0686  -1.6881   0.0000   0.0000   0.0000   0.1481
  -8.900  -0.3767   0.10322   0.09882  -0.0367  1.0000  0.0688  -1.7185   0.0000   0.0000   0.0000   0.1468
  -8.800  -0.3789   0.10244   0.09807  -0.0373  1.0000  0.0690  -1.7427   0.0000   0.0000   0.0000   0.1459
  -8.700  -0.3810   0.10160   0.09727  -0.0378  1.0000  0.0691  -1.7643   0.0000   0.0000   0.0000   0.1454
  -8.600  -0.3835   0.10073   0.09643  -0.0381  1.0000  0.0692  -1.7857   0.0000   0.0000   0.0000   0.1452
  -8.500  -0.3865   0.09984   0.09558  -0.0384  1.0000  0.0693  -1.8072   0.0000   0.0000   0.0000   0.1455
  -8.400  -0.3901   0.09897   0.09474  -0.0385  1.0000  0.0693  -1.8288   0.0000   0.0000   0.0000   0.1461
  -8.300  -0.3943   0.09811   0.09391  -0.0386  1.0000  0.0694  -1.8507   0.0000   0.0000   0.0000   0.1472
  -8.200  -0.3987   0.09719   0.09304  -0.0387  1.0000  0.0694  -1.8735   0.0000   0.0000   0.0000   0.1481
  -8.100  -0.3746   0.09010   0.08586  -0.0345  1.0000  0.0732  -1.7306   0.0000   0.0000   0.0000   0.1526
  -8.000  -0.3651   0.08921   0.08495  -0.0327  1.0000  0.0757  -1.6516   0.0000   0.0000   0.0000   0.1551
  -7.900  -0.3635   0.08833   0.08409  -0.0321  1.0000  0.0771  -1.6327   0.0000   0.0000   0.0000   0.1565
  -7.800  -0.3638   0.08745   0.08323  -0.0317  1.0000  0.0784  -1.6268   0.0000   0.0000   0.0000   0.1579
  -7.700  -0.3652   0.08658   0.08239  -0.0313  1.0000  0.0795  -1.6277   0.0000   0.0000   0.0000   0.1594
  -7.600  -0.3677   0.08573   0.08158  -0.0309  1.0000  0.0805  -1.6330   0.0000   0.0000   0.0000   0.1612
  -7.500  -0.3711   0.08492   0.08080  -0.0304  1.0000  0.0814  -1.6416   0.0000   0.0000   0.0000   0.1634
  -7.400  -0.3755   0.08417   0.08008  -0.0298  1.0000  0.0822  -1.6528   0.0000   0.0000   0.0000   0.1661
  -7.300  -0.3810   0.08346   0.07942  -0.0291  1.0000  0.0828  -1.6662   0.0000   0.0000   0.0000   0.1692
  -7.200  -0.3872   0.08280   0.07880  -0.0283  1.0000  0.0834  -1.6811   0.0000   0.0000   0.0000   0.1726
  -7.100  -0.3935   0.08209   0.07813  -0.0277  1.0000  0.0840  -1.6973   0.0000   0.0000   0.0000   0.1756
  -7.000  -0.3984   0.08120   0.07727  -0.0276  1.0000  0.0847  -1.7154   0.0000   0.0000   0.0000   0.1768
  -6.900  -0.4031   0.08022   0.07632  -0.0279  1.0000  0.0856  -1.7368   0.0000   0.0000   0.0000   0.1770
  -6.800  -0.4078   0.07920   0.07533  -0.0286  1.0000  0.0865  -1.7635   0.0000   0.0000   0.0000   0.1763
  -6.700  -0.4125   0.07812   0.07427  -0.0299  1.0000  0.0876  -1.7997   0.0000   0.0000   0.0000   0.1741
  -6.600  -0.4173   0.07703   0.07316  -0.0325  1.0000  0.0889  -1.8576   0.0000   0.0000   0.0000   0.1689
  -6.500  -0.4219   0.07623   0.07230  -0.0360  1.0000  0.0901  -1.9393   0.0000   0.0000   0.0000   0.1615
  -6.400  -0.4237   0.07573   0.07170  -0.0376  1.0000  0.0907  -1.9862   0.0000   0.0000   0.0000   0.1582
  -6.300  -0.4240   0.07503   0.07093  -0.0382  1.0000  0.0910  -2.0114   0.0000   0.0000   0.0000   0.1569
  -6.200  -0.4237   0.07414   0.06997  -0.0385  1.0000  0.0912  -2.0301   0.0000   0.0000   0.0000   0.1561
  -6.000  -0.4303   0.06681   0.06283  -0.0376  1.0000  0.0934  -2.0433   0.0000   0.0000   0.0000   0.1597
  -5.900  -0.4285   0.06557   0.06164  -0.0362  1.0000  0.0942  -2.0072   0.0000   0.0000   0.0000   0.1626
  -5.800  -0.4265   0.06455   0.06066  -0.0350  1.0000  0.0950  -1.9738   0.0000   0.0000   0.0000   0.1651
  -5.700  -0.4245   0.06366   0.05979  -0.0339  1.0000  0.0959  -1.9417   0.0000   0.0000   0.0000   0.1675
  -5.600  -0.4224   0.06277   0.05892  -0.0330  1.0000  0.0969  -1.9144   0.0000   0.0000   0.0000   0.1693
  -5.500  -0.4203   0.06185   0.05801  -0.0323  1.0000  0.0980  -1.8915   0.0000   0.0000   0.0000   0.1706
  -5.400  -0.4180   0.06089   0.05705  -0.0318  1.0000  0.0993  -1.8719   0.0000   0.0000   0.0000   0.1713
  -5.300  -0.4154   0.05987   0.05602  -0.0316  1.0000  0.1009  -1.8563   0.0000   0.0000   0.0000   0.1713
  -5.200  -0.4124   0.05876   0.05489  -0.0317  1.0000  0.1027  -1.8451   0.0000   0.0000   0.0000   0.1707
  -5.100  -0.4089   0.05755   0.05365  -0.0321  1.0000  0.1049  -1.8393   0.0000   0.0000   0.0000   0.1690
  -5.000  -0.3942   0.05923   0.05472  -0.0373  1.0000  0.1143  -1.9243   0.0000   0.0000   0.0000   0.1527
  -4.900  -0.3970   0.05385   0.04942  -0.0384  1.0000  0.1163  -1.9520   0.0000   0.0000   0.0000   0.1507
  -4.800  -0.3938   0.05215   0.04780  -0.0377  1.0000  0.1173  -1.9184   0.0000   0.0000   0.0000   0.1517
  -4.700  -0.3901   0.05091   0.04662  -0.0371  1.0000  0.1183  -1.8838   0.0000   0.0000   0.0000   0.1526
  -4.600  -0.3860   0.04988   0.04562  -0.0364  1.0000  0.1194  -1.8493   0.0000   0.0000   0.0000   0.1532
  -4.500  -0.3815   0.04897   0.04473  -0.0359  1.0000  0.1208  -1.8155   0.0000   0.0000   0.0000   0.1536
  -4.400  -0.3766   0.04809   0.04384  -0.0355  1.0000  0.1224  -1.7842   0.0000   0.0000   0.0000   0.1534
  -4.300  -0.3711   0.04719   0.04293  -0.0353  1.0000  0.1246  -1.7560   0.0000   0.0000   0.0000   0.1526
  -4.200  -0.3585   0.04710   0.04231  -0.0383  1.0000  0.1395  -1.7851   0.0000   0.0000   0.0000   0.1407
  -4.100  -0.3543   0.04494   0.04025  -0.0381  1.0000  0.1408  -1.7533   0.0000   0.0000   0.0000   0.1402
  -3.900  -0.3095   0.03438   0.02856  -0.0423  0.9987  0.0660  -2.1279   0.0000   0.0000   0.0000   0.1102
  -3.800  -0.2946   0.03177   0.02574  -0.0437  0.9973  0.0607  -2.1414   0.0000   0.0000   0.0000   0.0981
  -3.700  -0.2741   0.02913   0.02230  -0.0445  0.9960  0.0514  -2.2755   0.0000   0.0000   0.0000   0.0836
  -3.600  -0.2554   0.02923   0.02229  -0.0457  0.9932  0.0502  -2.1970   0.0000   0.0000   0.0000   0.0672
  -3.500  -0.2389   0.02796   0.02087  -0.0469  0.9915  0.0490  -2.1559   0.0000   0.0000   0.0000   0.0496
  -3.400  -0.2237   0.02639   0.01910  -0.0479  0.9899  0.0482  -2.1321   0.0000   0.0000   0.0000   0.0314
  -3.300  -0.2088   0.02526   0.01778  -0.0487  0.9876  0.0476  -2.1238   0.0000   0.0000   0.0000   0.0123
  -3.200  -0.1936   0.02430   0.01665  -0.0495  0.9852  0.0473  -2.1147   0.0000   0.0000   0.0000  -0.0105
  -3.100  -0.1777   0.02347   0.01563  -0.0503  0.9827  0.0472  -2.1018   0.0000   0.0000   0.0000  -0.0382
  -3.000  -0.1613   0.02275   0.01477  -0.0512  0.9802  0.0473  -2.0853   0.0000   0.0000   0.0000  -0.0731
  -2.900  -0.1443   0.02211   0.01401  -0.0522  0.9779  0.0476  -2.0656   0.0000   0.0000   0.0000  -0.1180
  -2.800  -0.1267   0.02155   0.01335  -0.0534  0.9757  0.0482  -2.0428   0.0000   0.0000   0.0000  -0.1779
  -2.700  -0.1084   0.02111   0.01282  -0.0546  0.9738  0.0490  -2.0160   0.0000   0.0000   0.0000  -0.2610
  -2.600  -0.0915   0.02054   0.01221  -0.0556  0.9719  0.0502  -1.9984   0.0000   0.0000   0.0000  -0.3663
  -2.500  -0.0804   0.01965   0.01130  -0.0556  0.9685  0.0525  -1.9999   0.0000   0.0000   0.0000  -0.4510
  -2.400  -0.0670   0.01923   0.01093  -0.0562  0.9648  0.0574  -1.9579   0.0000   0.0000   0.0000  -0.5992
  -2.300  -0.0515   0.01905   0.01076  -0.0571  0.9613  0.0643  -1.9095   0.0000   0.0000   0.0000  -0.8718
  -2.200  -0.0349   0.01871   0.01038  -0.0580  0.9582  0.0708  -1.8884   0.0000   0.0000   0.0000  -1.4310
  -2.100  -0.0181   0.01806   0.00980  -0.0590  0.9558  0.0873  -1.8943   0.0000   0.0000   0.0000  -3.0513
  -2.000  -0.0024   0.01681   0.00922  -0.0601  0.9540  0.2109  -1.9402   0.0000   0.0000   0.0000  -25.5563
  -1.900   0.0143   0.01624   0.00924  -0.0615  0.9521  0.3402  -1.8676   0.0000   0.0000   0.0000   4.5942
  -1.800   0.0298   0.01567   0.00937  -0.0625  0.9502  0.5047  -1.7866   0.0000   0.0000   0.0000   2.3644
  -1.700   0.0328   0.01527   0.00941  -0.0607  0.9444  0.6086  -1.7406   0.0000   0.0000   0.0000   2.1182
  -1.600   0.0398   0.01494   0.00950  -0.0592  0.9400  0.7280  -1.6789   0.0000   0.0000   0.0000   1.7484
  -1.500   0.0505   0.01469   0.00956  -0.0581  0.9368  0.8441  -1.6041   0.0000   0.0000   0.0000   1.4092
  -1.400   0.0906   0.01446   0.00932  -0.0633  0.9371  1.0000  -1.4318   0.0000   0.0000   0.0000   0.9534
  -1.300   0.1093   0.01449   0.00922  -0.0648  0.9339  1.0000  -1.3336   0.0000   0.0000   0.0000   0.8461
  -1.200   0.1294   0.01451   0.00912  -0.0666  0.9311  1.0000  -1.2313   0.0000   0.0000   0.0000   0.7666
  -1.100   0.1505   0.01452   0.00902  -0.0685  0.9289  1.0000  -1.1264   0.0000   0.0000   0.0000   0.7066
  -1.000   0.1724   0.01454   0.00893  -0.0705  0.9271  1.0000  -1.0196   0.0000   0.0000   0.0000   0.6603
  -0.900   0.1779   0.01455   0.00888  -0.0695  0.9200  1.0000  -0.9672   0.0000   0.0000   0.0000   0.6417
  -0.800   0.1919   0.01454   0.00877  -0.0701  0.9151  1.0000  -0.8838   0.0000   0.0000   0.0000   0.6157
  -0.700   0.2097   0.01451   0.00866  -0.0713  0.9115  1.0000  -0.7950   0.0000   0.0000   0.0000   0.5903
  -0.600   0.2293   0.01446   0.00854  -0.0728  0.9087  1.0000  -0.7021   0.0000   0.0000   0.0000   0.5678
  -0.500   0.2503   0.01440   0.00841  -0.0746  0.9064  1.0000  -0.6069   0.0000   0.0000   0.0000   0.5482
  -0.400   0.2724   0.01432   0.00827  -0.0766  0.9046  1.0000  -0.5138   0.0000   0.0000   0.0000   0.5311
  -0.300   0.2943   0.01424   0.00812  -0.0785  0.9029  1.0000  -0.5307   0.0000   0.0000   0.0000   0.5165
  -0.200   0.2973   0.01429   0.00814  -0.0770  0.8944  1.0000  -0.5363   0.0000   0.0000   0.0000   0.5084
  -0.100   0.3114   0.01424   0.00804  -0.0774  0.8897  1.0000  -0.5490   0.0000   0.0000   0.0000   0.4980
   0.000   0.3286   0.01415   0.00791  -0.0784  0.8862  1.0000  -0.5638   0.0000   0.0000   0.0000   0.4879
   0.100   0.3471   0.01403   0.00775  -0.0796  0.8834  1.0000  -0.5795   0.0000   0.0000   0.0000   0.4784
   0.200   0.3661   0.01389   0.00756  -0.0808  0.8809  1.0000  -0.5965   0.0000   0.0000   0.0000   0.4698
   0.300   0.3852   0.01376   0.00739  -0.0821  0.8788  1.0000  -0.6142   0.0000   0.0000   0.0000   0.4619
   0.400   0.3889   0.01383   0.00743  -0.0806  0.8701  1.0000  -0.6211   0.0000   0.0000   0.0000   0.4561
   0.500   0.4018   0.01375   0.00733  -0.0807  0.8649  1.0000  -0.6346   0.0000   0.0000   0.0000   0.4496
   0.600   0.4175   0.01362   0.00716  -0.0813  0.8610  1.0000  -0.6502   0.0000   0.0000   0.0000   0.4433
   0.700   0.4340   0.01347   0.00698  -0.0820  0.8578  1.0000  -0.6670   0.0000   0.0000   0.0000   0.4374
   0.800   0.4508   0.01331   0.00679  -0.0827  0.8551  1.0000  -0.6851   0.0000   0.0000   0.0000   0.4318
   0.900   0.4571   0.01336   0.00683  -0.0817  0.8469  1.0000  -0.6951   0.0000   0.0000   0.0000   0.4270
   1.000   0.4686   0.01329   0.00673  -0.0815  0.8410  1.0000  -0.7092   0.0000   0.0000   0.0000   0.4221
   1.100   0.4825   0.01316   0.00657  -0.0816  0.8365  1.0000  -0.7253   0.0000   0.0000   0.0000   0.4174
   1.200   0.4976   0.01300   0.00639  -0.0820  0.8327  1.0000  -0.7425   0.0000   0.0000   0.0000   0.4128
   1.300   0.5088   0.01295   0.00633  -0.0817  0.8270  1.0000  -0.7571   0.0000   0.0000   0.0000   0.4087
   1.400   0.5175   0.01295   0.00631  -0.0811  0.8192  1.0000  -0.7706   0.0000   0.0000   0.0000   0.4047
   1.500   0.5300   0.01284   0.00618  -0.0810  0.8136  1.0000  -0.7876   0.0000   0.0000   0.0000   0.4007
   1.600   0.5438   0.01271   0.00601  -0.0811  0.8090  1.0000  -0.8058   0.0000   0.0000   0.0000   0.3969
   1.700   0.5543   0.01268   0.00596  -0.0807  0.8024  1.0000  -0.8211   0.0000   0.0000   0.0000   0.3933
   1.800   0.5639   0.01267   0.00593  -0.0803  0.7944  1.0000  -0.8357   0.0000   0.0000   0.0000   0.3899
   1.900   0.5761   0.01258   0.00581  -0.0801  0.7884  1.0000  -0.8527   0.0000   0.0000   0.0000   0.3866
   2.000   0.5893   0.01247   0.00566  -0.0801  0.7834  1.0000  -0.8708   0.0000   0.0000   0.0000   0.3833
   2.100   0.5978   0.01252   0.00570  -0.0795  0.7741  1.0000  -0.8863   0.0000   0.0000   0.0000   0.3803
   2.200   0.6088   0.01248   0.00563  -0.0791  0.7666  1.0000  -0.9044   0.0000   0.0000   0.0000   0.3773
   2.300   0.6212   0.01241   0.00551  -0.0790  0.7606  1.0000  -0.9241   0.0000   0.0000   0.0000   0.3743
   2.400   0.6309   0.01244   0.00554  -0.0786  0.7520  1.0000  -0.9409   0.0000   0.0000   0.0000   0.3716
   2.500   0.6413   0.01244   0.00552  -0.0782  0.7436  1.0000  -0.9585   0.0000   0.0000   0.0000   0.3690
   2.600   0.6531   0.01241   0.00542  -0.0780  0.7368  1.0000  -0.9780   0.0000   0.0000   0.0000   0.3663
   2.700   0.6629   0.01246   0.00549  -0.0776  0.7278  1.0000  -0.9950   0.0000   0.0000   0.0000   0.3639
   2.800   0.6731   0.01248   0.00549  -0.0772  0.7189  1.0000  -1.0135   0.0000   0.0000   0.0000   0.3614
   2.900   0.6848   0.01249   0.00542  -0.0770  0.7119  1.0000  -1.0357   0.0000   0.0000   0.0000   0.3591
   3.000   0.6941   0.01256   0.00550  -0.0765  0.7022  1.0000  -1.0549   0.0000   0.0000   0.0000   0.3569
   3.100   0.7045   0.01260   0.00550  -0.0762  0.6933  1.0000  -1.0756   0.0000   0.0000   0.0000   0.3546
   3.200   0.7157   0.01264   0.00546  -0.0759  0.6856  1.0000  -1.0975   0.0000   0.0000   0.0000   0.3525
   3.300   0.7249   0.01272   0.00556  -0.0755  0.6752  1.0000  -1.1168   0.0000   0.0000   0.0000   0.3505
   3.400   0.7354   0.01278   0.00556  -0.0751  0.6667  1.0000  -1.1380   0.0000   0.0000   0.0000   0.3484
   3.500   0.7456   0.01286   0.00560  -0.0748  0.6577  1.0000  -1.1588   0.0000   0.0000   0.0000   0.3465
   3.600   0.7553   0.01294   0.00567  -0.0744  0.6477  1.0000  -1.1790   0.0000   0.0000   0.0000   0.3446
   3.700   0.7660   0.01302   0.00566  -0.0741  0.6396  1.0000  -1.2041   0.0000   0.0000   0.0000   0.3427
   3.800   0.7754   0.01311   0.00577  -0.0737  0.6292  1.0000  -1.2271   0.0000   0.0000   0.0000   0.3410
   3.900   0.7854   0.01320   0.00581  -0.0733  0.6197  1.0000  -1.2514   0.0000   0.0000   0.0000   0.3392
   4.000   0.7956   0.01331   0.00586  -0.0730  0.6109  1.0000  -1.2761   0.0000   0.0000   0.0000   0.3375
   4.100   0.8050   0.01341   0.00602  -0.0726  0.6004  1.0000  -1.2996   0.0000   0.0000   0.0000   0.3358
   4.200   0.8152   0.01352   0.00605  -0.0723  0.5916  1.0000  -1.3248   0.0000   0.0000   0.0000   0.3342
   4.300   0.8246   0.01363   0.00617  -0.0719  0.5812  1.0000  -1.3484   0.0000   0.0000   0.0000   0.3326
   4.400   0.8343   0.01374   0.00624  -0.0715  0.5714  1.0000  -1.3729   0.0000   0.0000   0.0000   0.3310
   4.500   0.8442   0.01387   0.00632  -0.0712  0.5622  1.0000  -1.4013   0.0000   0.0000   0.0000   0.3295
   4.600   0.8535   0.01398   0.00644  -0.0708  0.5516  1.0000  -1.4338   0.0000   0.0000   0.0000   0.3280
   4.700   0.8635   0.01413   0.00649  -0.0704  0.5427  1.0000  -1.4687   0.0000   0.0000   0.0000   0.3266
   4.800   0.8726   0.01425   0.00664  -0.0700  0.5319  1.0000  -1.5017   0.0000   0.0000   0.0000   0.3252
   4.900   0.8822   0.01438   0.00672  -0.0696  0.5220  1.0000  -1.5360   0.0000   0.0000   0.0000   0.3237
   5.000   0.8916   0.01453   0.00684  -0.0693  0.5121  1.0000  -1.5701   0.0000   0.0000   0.0000   0.3224
   5.100   0.9008   0.01466   0.00697  -0.0688  0.5015  1.0000  -1.6040   0.0000   0.0000   0.0000   0.3210
   5.200   0.9104   0.01485   0.00705  -0.0685  0.4925  1.0000  -1.6391   0.0000   0.0000   0.0000   0.3197
   5.300   0.9194   0.01497   0.00722  -0.0681  0.4814  1.0000  -1.6726   0.0000   0.0000   0.0000   0.3184
   5.400   0.9288   0.01515   0.00732  -0.0677  0.4719  1.0000  -1.7076   0.0000   0.0000   0.0000   0.3172
   5.500   0.9379   0.01531   0.00749  -0.0673  0.4614  1.0000  -1.7417   0.0000   0.0000   0.0000   0.3159
   5.600   0.9469   0.01547   0.00768  -0.0669  0.4510  1.0000  -1.7775   0.0000   0.0000   0.0000   0.3147
   5.700   0.9560   0.01567   0.00782  -0.0665  0.4412  1.0000  -1.8360   0.0000   0.0000   0.0000   0.3135
   5.800   0.9648   0.01582   0.00799  -0.0660  0.4303  1.0000  -1.9091   0.0000   0.0000   0.0000   0.3123
   5.900   0.9739   0.01606   0.00811  -0.0656  0.4212  1.0000  -1.9853   0.0000   0.0000   0.0000   0.3111
   6.000   0.9827   0.01620   0.00833  -0.0652  0.4101  1.0000  -2.0597   0.0000   0.0000   0.0000   0.3100
   6.100   0.9915   0.01641   0.00847  -0.0648  0.4006  1.0000  -2.1365   0.0000   0.0000   0.0000   0.3088
   6.200   1.0003   0.01662   0.00868  -0.0644  0.3905  1.0000  -2.2132   0.0000   0.0000   0.0000   0.3078
   6.300   1.0089   0.01680   0.00885  -0.0639  0.3802  1.0000  -2.2904   0.0000   0.0000   0.0000   0.3066
   6.400   1.0176   0.01706   0.00903  -0.0635  0.3709  1.0000  -2.3689   0.0000   0.0000   0.0000   0.3056
   6.500   1.0261   0.01723   0.00925  -0.0630  0.3601  1.0000  -2.4466   0.0000   0.0000   0.0000   0.3045
   6.600   1.0345   0.01751   0.00942  -0.0626  0.3510  1.0000  -2.5261   0.0000   0.0000   0.0000   0.3034
   6.700   1.0430   0.01771   0.00967  -0.0621  0.3409  1.0000  -2.6050   0.0000   0.0000   0.0000   0.3024
   6.800   1.0514   0.01794   0.00988  -0.0617  0.3316  1.0000  -2.6849   0.0000   0.0000   0.0000   0.3014
   6.900   1.0599   0.01824   0.01011  -0.0613  0.3229  1.0000  -2.7656   0.0000   0.0000   0.0000   0.3004
   7.000   1.0682   0.01844   0.01036  -0.0608  0.3130  1.0000  -2.8457   0.0000   0.0000   0.0000   0.2994
   7.100   1.0762   0.01874   0.01062  -0.0603  0.3043  1.0000  -2.9293   0.0000   0.0000   0.0000   0.2984
   7.200   1.0845   0.01898   0.01091  -0.0599  0.2950  1.0000  -3.0108   0.0000   0.0000   0.0000   0.2974
   7.300   1.0924   0.01921   0.01114  -0.0594  0.2857  1.0000  -3.0922   0.0000   0.0000   0.0000   0.2964
   7.400   1.1002   0.01958   0.01139  -0.0589  0.2773  1.0000  -3.1743   0.0000   0.0000   0.0000   0.2955
   7.500   1.1082   0.01977   0.01168  -0.0584  0.2680  1.0000  -3.2556   0.0000   0.0000   0.0000   0.2945
   7.600   1.1158   0.02005   0.01192  -0.0579  0.2597  1.0000  -3.3375   0.0000   0.0000   0.0000   0.2936
   7.700   1.1237   0.02041   0.01224  -0.0574  0.2516  1.0000  -3.4195   0.0000   0.0000   0.0000   0.2927
   7.800   1.1314   0.02063   0.01252  -0.0569  0.2429  1.0000  -3.5014   0.0000   0.0000   0.0000   0.2917
   7.900   1.1387   0.02096   0.01279  -0.0563  0.2351  1.0000  -3.5833   0.0000   0.0000   0.0000   0.2908
   8.000   1.1463   0.02131   0.01314  -0.0558  0.2273  1.0000  -3.6651   0.0000   0.0000   0.0000   0.2899
   8.100   1.1539   0.02156   0.01345  -0.0553  0.2193  1.0000  -3.7470   0.0000   0.0000   0.0000   0.2890
   8.200   1.1610   0.02193   0.01376  -0.0547  0.2123  1.0000  -3.8287   0.0000   0.0000   0.0000   0.2881
   8.300   1.1686   0.02235   0.01417  -0.0542  0.2050  1.0000  -3.9098   0.0000   0.0000   0.0000   0.2872
   8.400   1.1757   0.02259   0.01449  -0.0536  0.1973  1.0000  -3.9905   0.0000   0.0000   0.0000   0.2863
   8.500   1.1820   0.02292   0.01477  -0.0530  0.1900  1.0000  -4.0708   0.0000   0.0000   0.0000   0.2854
   8.600   1.1886   0.02335   0.01517  -0.0524  0.1825  1.0000  -4.1498   0.0000   0.0000   0.0000   0.2845
   8.700   1.1951   0.02354   0.01546  -0.0517  0.1746  1.0000  -4.2294   0.0000   0.0000   0.0000   0.2835
   8.800   1.2005   0.02385   0.01571  -0.0510  0.1673  1.0000  -4.3077   0.0000   0.0000   0.0000   0.2826
   8.900   1.2064   0.02427   0.01616  -0.0503  0.1600  1.0000  -4.3839   0.0000   0.0000   0.0000   0.2817
   9.000   1.2125   0.02446   0.01644  -0.0496  0.1524  1.0000  -4.4627   0.0000   0.0000   0.0000   0.2808
   9.100   1.2174   0.02478   0.01672  -0.0489  0.1455  1.0000  -4.5385   0.0000   0.0000   0.0000   0.2798
   9.200   1.2226   0.02527   0.01718  -0.0481  0.1389  1.0000  -4.6107   0.0000   0.0000   0.0000   0.2789
   9.300   1.2288   0.02550   0.01751  -0.0474  0.1321  1.0000  -4.6877   0.0000   0.0000   0.0000   0.2780
   9.400   1.2335   0.02580   0.01782  -0.0466  0.1255  1.0000  -4.7611   0.0000   0.0000   0.0000   0.2771
   9.500   1.2367   0.02644   0.01833  -0.0457  0.1191  1.0000  -4.8231   0.0000   0.0000   0.0000   0.2761
   9.600   1.2429   0.02665   0.01870  -0.0450  0.1128  1.0000  -4.8967   0.0000   0.0000   0.0000   0.2752
   9.700   1.2474   0.02700   0.01908  -0.0442  0.1064  1.0000  -4.9631   0.0000   0.0000   0.0000   0.2743
   9.800   1.2493   0.02761   0.01961  -0.0431  0.1006  1.0000  -5.0151   0.0000   0.0000   0.0000   0.2732
   9.900   1.2531   0.02811   0.02018  -0.0421  0.0942  1.0000  -5.0655   0.0000   0.0000   0.0000   0.2722
  10.000   1.2559   0.02851   0.02063  -0.0409  0.0873  1.0000  -5.1125   0.0000   0.0000   0.0000   0.2711
  10.100   1.2549   0.02920   0.02123  -0.0395  0.0812  1.0000  -5.1414   0.0000   0.0000   0.0000   0.2698
  10.200   1.2556   0.02995   0.02203  -0.0381  0.0739  1.0000  -5.1553   0.0000   0.0000   0.0000   0.2685
  10.300   1.2560   0.03054   0.02263  -0.0368  0.0669  1.0000  -5.1742   0.0000   0.0000   0.0000   0.2673
  10.400   1.2522   0.03162   0.02360  -0.0352  0.0617  1.0000  -5.1726   0.0000   0.0000   0.0000   0.2660
  10.500   1.2532   0.03246   0.02451  -0.0340  0.0567  1.0000  -5.1731   0.0000   0.0000   0.0000   0.2649
  10.600   1.2549   0.03308   0.02517  -0.0329  0.0525  1.0000  -5.1949   0.0000   0.0000   0.0000   0.2638
  10.700   1.2556   0.03373   0.02584  -0.0319  0.0495  1.0000  -5.2250   0.0000   0.0000   0.0000   0.2629
  10.800   1.2548   0.03461   0.02668  -0.0308  0.0471  1.0000  -5.2482   0.0000   0.0000   0.0000   0.2619
  10.900   1.2527   0.03607   0.02810  -0.0296  0.0446  1.0000  -5.2567   0.0000   0.0000   0.0000   0.2608
  11.000   1.2555   0.03692   0.02901  -0.0288  0.0432  1.0000  -5.2979   0.0000   0.0000   0.0000   0.2600
  11.100   1.2586   0.03770   0.02989  -0.0280  0.0421  1.0000  -5.3424   0.0000   0.0000   0.0000   0.2591
  11.200   1.2615   0.03855   0.03083  -0.0272  0.0409  1.0000  -5.3853   0.0000   0.0000   0.0000   0.2583
  11.300   1.2643   0.03943   0.03179  -0.0265  0.0399  1.0000  -5.4280   0.0000   0.0000   0.0000   0.2576
  11.400   1.2669   0.04033   0.03276  -0.0258  0.0389  1.0000  -5.4712   0.0000   0.0000   0.0000   0.2568
  11.500   1.2696   0.04125   0.03375  -0.0251  0.0380  1.0000  -5.5151   0.0000   0.0000   0.0000   0.2561
  11.600   1.2720   0.04218   0.03474  -0.0244  0.0372  1.0000  -5.5591   0.0000   0.0000   0.0000   0.2553
  11.700   1.2743   0.04313   0.03576  -0.0238  0.0365  1.0000  -5.6027   0.0000   0.0000   0.0000   0.2547
  11.800   1.2763   0.04411   0.03680  -0.0232  0.0359  1.0000  -5.6458   0.0000   0.0000   0.0000   0.2540
  11.900   1.2782   0.04511   0.03792  -0.0226  0.0353  1.0000  -5.6863   0.0000   0.0000   0.0000   0.2533
  12.000   1.2798   0.04615   0.03902  -0.0220  0.0348  1.0000  -5.7269   0.0000   0.0000   0.0000   0.2527
  12.100   1.2812   0.04723   0.04016  -0.0215  0.0344  1.0000  -5.7663   0.0000   0.0000   0.0000   0.2521
  12.200   1.2825   0.04836   0.04136  -0.0209  0.0340  1.0000  -5.8039   0.0000   0.0000   0.0000   0.2515
  12.300   1.2837   0.04956   0.04262  -0.0204  0.0336  1.0000  -5.8392   0.0000   0.0000   0.0000   0.2510
  12.400   1.2842   0.05082   0.04396  -0.0200  0.0332  1.0000  -5.8697   0.0000   0.0000   0.0000   0.2505
  12.500   1.2842   0.05217   0.04539  -0.0195  0.0330  1.0000  -5.8953   0.0000   0.0000   0.0000   0.2500
  12.600   1.2836   0.05359   0.04690  -0.0191  0.0327  1.0000  -5.9164   0.0000   0.0000   0.0000   0.2495
  12.700   1.2826   0.05507   0.04847  -0.0187  0.0325  1.0000  -5.9330   0.0000   0.0000   0.0000   0.2490
  12.800   1.2807   0.05661   0.05012  -0.0184  0.0323  1.0000  -5.9441   0.0000   0.0000   0.0000   0.2486
  12.900   1.2781   0.05821   0.05182  -0.0181  0.0322  1.0000  -5.9509   0.0000   0.0000   0.0000   0.2483
  13.000   1.2750   0.05986   0.05357  -0.0178  0.0321  1.0000  -5.9539   0.0000   0.0000   0.0000   0.2480
  13.100   1.2713   0.06156   0.05538  -0.0177  0.0320  1.0000  -5.9537   0.0000   0.0000   0.0000   0.2477
  13.200   1.2671   0.06331   0.05723  -0.0176  0.0320  1.0000  -5.9504   0.0000   0.0000   0.0000   0.2475
  13.300   1.2625   0.06510   0.05913  -0.0176  0.0319  1.0000  -5.9444   0.0000   0.0000   0.0000   0.2474
  13.400   1.2575   0.06694   0.06107  -0.0177  0.0319  1.0000  -5.9357   0.0000   0.0000   0.0000   0.2474
  13.500   1.2521   0.06884   0.06307  -0.0179  0.0319  1.0000  -5.9244   0.0000   0.0000   0.0000   0.2475
  13.600   1.2464   0.07080   0.06514  -0.0183  0.0319  1.0000  -5.9108   0.0000   0.0000   0.0000   0.2477
  13.700   1.2404   0.07283   0.06727  -0.0187  0.0319  1.0000  -5.8945   0.0000   0.0000   0.0000   0.2479
  13.800   1.2341   0.07493   0.06947  -0.0193  0.0319  1.0000  -5.8756   0.0000   0.0000   0.0000   0.2483
  13.900   1.2275   0.07711   0.07175  -0.0200  0.0319  1.0000  -5.8540   0.0000   0.0000   0.0000   0.2488
  14.000   1.2206   0.07938   0.07411  -0.0209  0.0320  1.0000  -5.8292   0.0000   0.0000   0.0000   0.2494
  14.100   1.2134   0.08174   0.07656  -0.0219  0.0320  1.0000  -5.8009   0.0000   0.0000   0.0000   0.2501
  14.200   1.2058   0.08421   0.07912  -0.0230  0.0321  1.0000  -5.7686   0.0000   0.0000   0.0000   0.2510
  14.300   1.1978   0.08681   0.08182  -0.0243  0.0322  1.0000  -5.7317   0.0000   0.0000   0.0000   0.2521
  14.400   1.1894   0.08956   0.08467  -0.0258  0.0323  1.0000  -5.6892   0.0000   0.0000   0.0000   0.2533
  14.500   1.1804   0.09251   0.08771  -0.0275  0.0324  1.0000  -5.6396   0.0000   0.0000   0.0000   0.2547
  14.600   1.1706   0.09569   0.09100  -0.0294  0.0325  1.0000  -5.5807   0.0000   0.0000   0.0000   0.2564
  14.700   1.1599   0.09921   0.09462  -0.0317  0.0327  1.0000  -5.5090   0.0000   0.0000   0.0000   0.2585
  14.800   1.1475   0.10320   0.09872  -0.0343  0.0330  1.0000  -5.4179   0.0000   0.0000   0.0000   0.2610
  14.900   1.1324   0.10797   0.10361  -0.0377  0.0333  1.0000  -5.2946   0.0000   0.0000   0.0000   0.2642
  15.000   1.1120   0.11428   0.11005  -0.0422  0.0339  1.0000  -5.1068   0.0000   0.0000   0.0000   0.2688


