xflr5 v6.61

 Calculated polar for: SD7037-092-88

 1 1 Reynolds number fixed          Mach number fixed         

 xtrf =   1.000 (top)        1.000 (bottom)
 Mach =   0.000     Re =     0.050 e 6     Ncrit =   9.000

  alpha     CL        CD       CDp       Cm    Top Xtr Bot Xtr   Cpmin    Chinge    XCp    
 ------- -------- --------- --------- -------- ------- ------- -------- --------- ---------
 -10.000  -0.3697   0.12123   0.11400  -0.0220  1.0000  0.1748  -1.3118   0.0000   0.0000   0.0000   0.1835
  -9.900  -0.3689   0.12030   0.11309  -0.0223  1.0000  0.1777  -1.3150   0.0000   0.0000   0.0000   0.1828
  -9.800  -0.3706   0.11976   0.11258  -0.0227  1.0000  0.1806  -1.3264   0.0000   0.0000   0.0000   0.1820
  -9.700  -0.3765   0.11999   0.11286  -0.0236  1.0000  0.1832  -1.3520   0.0000   0.0000   0.0000   0.1810
  -9.600  -0.3863   0.12092   0.11386  -0.0247  1.0000  0.1847  -1.3895   0.0000   0.0000   0.0000   0.1800
  -9.500  -0.3967   0.12189   0.11491  -0.0258  1.0000  0.1854  -1.4282   0.0000   0.0000   0.0000   0.1792
  -9.400  -0.4067   0.12268   0.11577  -0.0268  1.0000  0.1859  -1.4646   0.0000   0.0000   0.0000   0.1788
  -9.300  -0.3872   0.11674   0.10980  -0.0256  1.0000  0.1881  -1.4137   0.0000   0.0000   0.0000   0.1782
  -9.200  -0.3670   0.11265   0.10560  -0.0239  1.0000  0.1917  -1.3496   0.0000   0.0000   0.0000   0.1787
  -9.100  -0.3602   0.11095   0.10390  -0.0234  1.0000  0.1948  -1.3290   0.0000   0.0000   0.0000   0.1788
  -9.000  -0.3570   0.10973   0.10269  -0.0232  1.0000  0.1980  -1.3205   0.0000   0.0000   0.0000   0.1788
  -8.900  -0.3563   0.10881   0.10179  -0.0232  1.0000  0.2013  -1.3206   0.0000   0.0000   0.0000   0.1787
  -8.800  -0.3591   0.10835   0.10137  -0.0235  1.0000  0.2048  -1.3318   0.0000   0.0000   0.0000   0.1786
  -8.700  -0.3686   0.10888   0.10198  -0.0242  1.0000  0.2078  -1.3631   0.0000   0.0000   0.0000   0.1786
  -8.600  -0.3826   0.11008   0.10327  -0.0251  1.0000  0.2093  -1.4068   0.0000   0.0000   0.0000   0.1792
  -8.500  -0.3965   0.11110   0.10439  -0.0257  1.0000  0.2100  -1.4477   0.0000   0.0000   0.0000   0.1805
  -8.400  -0.4098   0.11187   0.10526  -0.0259  1.0000  0.2104  -1.4844   0.0000   0.0000   0.0000   0.1824
  -8.300  -0.3603   0.10278   0.09599  -0.0236  1.0000  0.2161  -1.3473   0.0000   0.0000   0.0000   0.1791
  -8.200  -0.3528   0.10113   0.09433  -0.0229  1.0000  0.2198  -1.3230   0.0000   0.0000   0.0000   0.1797
  -8.100  -0.3506   0.10007   0.09329  -0.0225  1.0000  0.2236  -1.3149   0.0000   0.0000   0.0000   0.1803
  -8.000  -0.3527   0.09946   0.09273  -0.0224  1.0000  0.2277  -1.3199   0.0000   0.0000   0.0000   0.1812
  -7.900  -0.3626   0.09980   0.09314  -0.0226  1.0000  0.2315  -1.3463   0.0000   0.0000   0.0000   0.1828
  -7.800  -0.3801   0.10104   0.09450  -0.0227  1.0000  0.2335  -1.3911   0.0000   0.0000   0.0000   0.1857
  -7.700  -0.3975   0.10208   0.09566  -0.0224  1.0000  0.2343  -1.4323   0.0000   0.0000   0.0000   0.1895
  -7.600  -0.4139   0.10293   0.09661  -0.0228  1.0000  0.2348  -1.4752   0.0000   0.0000   0.0000   0.1910
  -7.500  -0.3575   0.09440   0.08788  -0.0210  1.0000  0.2420  -1.3273   0.0000   0.0000   0.0000   0.1865
  -7.400  -0.3526   0.09310   0.08659  -0.0203  1.0000  0.2460  -1.3097   0.0000   0.0000   0.0000   0.1876
  -7.300  -0.3537   0.09236   0.08589  -0.0198  1.0000  0.2503  -1.3084   0.0000   0.0000   0.0000   0.1894
  -7.200  -0.3626   0.09238   0.08599  -0.0193  1.0000  0.2546  -1.3263   0.0000   0.0000   0.0000   0.1924
  -7.100  -0.3821   0.09348   0.08721  -0.0185  1.0000  0.2573  -1.3673   0.0000   0.0000   0.0000   0.1976
  -6.900  -0.4136   0.09416   0.08811  -0.0193  1.0000  0.2602  -1.4472   0.0000   0.0000   0.0000   0.2000
  -6.800  -0.3675   0.08815   0.08193  -0.0166  1.0000  0.2668  -1.3212   0.0000   0.0000   0.0000   0.2008
  -6.700  -0.3631   0.08696   0.08076  -0.0157  1.0000  0.2714  -1.3041   0.0000   0.0000   0.0000   0.2027
  -6.600  -0.3680   0.08651   0.08036  -0.0147  1.0000  0.2759  -1.3082   0.0000   0.0000   0.0000   0.2061
  -6.500  -0.3831   0.08695   0.08090  -0.0138  1.0000  0.2802  -1.3360   0.0000   0.0000   0.0000   0.2104
  -6.400  -0.4155   0.08935   0.08343  -0.0160  1.0000  0.2837  -1.4213   0.0000   0.0000   0.0000   0.2086
  -6.300  -0.4014   0.08577   0.07987  -0.0135  1.0000  0.2866  -1.3752   0.0000   0.0000   0.0000   0.2131
  -6.200  -0.3834   0.08324   0.07730  -0.0114  1.0000  0.2911  -1.3201   0.0000   0.0000   0.0000   0.2170
  -6.100  -0.3792   0.08209   0.07617  -0.0103  1.0000  0.2958  -1.3024   0.0000   0.0000   0.0000   0.2196
  -6.000  -0.3839   0.08159   0.07571  -0.0096  1.0000  0.3014  -1.3066   0.0000   0.0000   0.0000   0.2219
  -5.900  -0.4216   0.08434   0.07861  -0.0128  1.0000  0.3091  -1.4063   0.0000   0.0000   0.0000   0.2170
  -5.800  -0.4035   0.08065   0.07492  -0.0092  1.0000  0.3119  -1.3451   0.0000   0.0000   0.0000   0.2243
  -5.700  -0.3920   0.07875   0.07302  -0.0072  1.0000  0.3159  -1.3067   0.0000   0.0000   0.0000   0.2287
  -5.600  -0.3884   0.07771   0.07200  -0.0059  1.0000  0.3218  -1.2891   0.0000   0.0000   0.0000   0.2319
  -5.500  -0.4215   0.08015   0.07454  -0.0091  1.0000  0.3338  -1.3739   0.0000   0.0000   0.0000   0.2260
  -5.400  -0.4076   0.07694   0.07135  -0.0056  1.0000  0.3365  -1.3239   0.0000   0.0000   0.0000   0.2337
  -5.300  -0.3946   0.07510   0.06951  -0.0029  1.0000  0.3424  -1.2790   0.0000   0.0000   0.0000   0.2399
  -5.200  -0.3954   0.07445   0.06888  -0.0019  1.0000  0.3505  -1.2719   0.0000   0.0000   0.0000   0.2427
  -4.600  -0.3715   0.05471   0.04813  -0.0383  1.0000  0.1641  -1.7858   0.0000   0.0000   0.0000   0.1444
  -4.500  -0.3573   0.05119   0.04426  -0.0406  1.0000  0.1355  -1.8743   0.0000   0.0000   0.0000   0.1337
  -4.400  -0.3521   0.04953   0.04263  -0.0403  1.0000  0.1329  -1.8567   0.0000   0.0000   0.0000   0.1329
  -4.300  -0.3455   0.04785   0.04090  -0.0405  1.0000  0.1298  -1.8519   0.0000   0.0000   0.0000   0.1301
  -4.200  -0.3292   0.04447   0.03670  -0.0439  1.0000  0.1160  -1.9814   0.0000   0.0000   0.0000   0.1136
  -4.100  -0.3194   0.04408   0.03609  -0.0438  1.0000  0.1147  -1.9701   0.0000   0.0000   0.0000   0.1098
  -4.000  -0.3110   0.04304   0.03487  -0.0438  1.0000  0.1144  -1.9543   0.0000   0.0000   0.0000   0.1062
  -3.900  -0.3029   0.04168   0.03338  -0.0439  1.0000  0.1143  -1.9404   0.0000   0.0000   0.0000   0.1021
  -3.800  -0.2943   0.04045   0.03200  -0.0439  1.0000  0.1143  -1.9295   0.0000   0.0000   0.0000   0.0976
  -3.700  -0.2855   0.03927   0.03066  -0.0440  1.0000  0.1144  -1.9321   0.0000   0.0000   0.0000   0.0927
  -3.600  -0.2765   0.03808   0.02932  -0.0440  1.0000  0.1144  -1.9349   0.0000   0.0000   0.0000   0.0875
  -3.500  -0.2674   0.03687   0.02795  -0.0441  1.0000  0.1143  -1.9381   0.0000   0.0000   0.0000   0.0819
  -3.400  -0.2580   0.03565   0.02658  -0.0441  1.0000  0.1141  -1.9419   0.0000   0.0000   0.0000   0.0758
  -3.300  -0.2484   0.03445   0.02524  -0.0441  1.0000  0.1138  -1.9464   0.0000   0.0000   0.0000   0.0692
  -3.200  -0.2386   0.03335   0.02392  -0.0440  1.0000  0.1136  -1.9513   0.0000   0.0000   0.0000   0.0620
  -3.100  -0.2286   0.03239   0.02278  -0.0439  1.0000  0.1137  -1.9558   0.0000   0.0000   0.0000   0.0542
  -3.000  -0.2184   0.03153   0.02173  -0.0438  1.0000  0.1140  -1.9598   0.0000   0.0000   0.0000   0.0458
  -2.900  -0.2081   0.03072   0.02076  -0.0436  1.0000  0.1146  -1.9635   0.0000   0.0000   0.0000   0.0366
  -2.800  -0.1980   0.02948   0.01941  -0.0436  1.0000  0.1159  -1.9662   0.0000   0.0000   0.0000   0.0260
  -2.700  -0.1884   0.02853   0.01842  -0.0434  1.0000  0.1180  -1.9607   0.0000   0.0000   0.0000   0.0156
  -2.600  -0.1791   0.02783   0.01769  -0.0431  1.0000  0.1207  -1.9515   0.0000   0.0000   0.0000   0.0051
  -2.500  -0.1697   0.02726   0.01706  -0.0428  1.0000  0.1240  -1.9437   0.0000   0.0000   0.0000  -0.0063
  -2.400  -0.1602   0.02672   0.01644  -0.0424  1.0000  0.1282  -1.9397   0.0000   0.0000   0.0000  -0.0189
  -2.300  -0.1506   0.02628   0.01587  -0.0420  1.0000  0.1344  -1.9381   0.0000   0.0000   0.0000  -0.0332
  -2.200  -0.1415   0.02565   0.01525  -0.0417  1.0000  0.1434  -1.9297   0.0000   0.0000   0.0000  -0.0489
  -2.100  -0.1329   0.02529   0.01491  -0.0413  1.0000  0.1566  -1.9186   0.0000   0.0000   0.0000  -0.0650
  -2.000  -0.1241   0.02467   0.01437  -0.0408  1.0000  0.1720  -1.9197   0.0000   0.0000   0.0000  -0.0835
  -1.900  -0.1145   0.02410   0.01390  -0.0405  1.0000  0.1992  -1.9247   0.0000   0.0000   0.0000  -0.1082
  -1.800  -0.1043   0.02337   0.01340  -0.0403  1.0000  0.2480  -1.9338   0.0000   0.0000   0.0000  -0.1415
  -1.700  -0.0932   0.02223   0.01283  -0.0401  1.0000  0.3404  -1.9458   0.0000   0.0000   0.0000  -0.1856
  -1.600  -0.0873   0.02055   0.01262  -0.0383  1.0000  0.5529  -1.9454   0.0000   0.0000   0.0000  -0.1949
  -1.500  -0.0855   0.01900   0.01236  -0.0339  1.0000  1.0000  -1.9231   0.0000   0.0000   0.0000  -0.1525
  -1.400  -0.0750   0.01911   0.01204  -0.0342  1.0000  1.0000  -1.8743   0.0000   0.0000   0.0000  -0.2125
  -1.300  -0.0661   0.01924   0.01189  -0.0342  1.0000  1.0000  -1.8215   0.0000   0.0000   0.0000  -0.2747
  -1.200  -0.0575   0.01937   0.01176  -0.0341  1.0000  1.0000  -1.7701   0.0000   0.0000   0.0000  -0.3506
  -1.100  -0.0493   0.01952   0.01171  -0.0341  1.0000  1.0000  -1.7137   0.0000   0.0000   0.0000  -0.4490
  -1.000  -0.0412   0.01967   0.01168  -0.0340  1.0000  1.0000  -1.6568   0.0000   0.0000   0.0000  -0.5834
  -0.900  -0.0332   0.01983   0.01168  -0.0338  1.0000  1.0000  -1.5997   0.0000   0.0000   0.0000  -0.7794
  -0.800  -0.0253   0.02000   0.01171  -0.0337  1.0000  1.0000  -1.5426   0.0000   0.0000   0.0000  -1.0934
  -0.700  -0.0176   0.02018   0.01175  -0.0336  1.0000  1.0000  -1.4856   0.0000   0.0000   0.0000  -1.6795
  -0.600  -0.0099   0.02037   0.01181  -0.0335  1.0000  1.0000  -1.4289   0.0000   0.0000   0.0000  -3.1647
  -0.500  -0.0023   0.02056   0.01188  -0.0334  1.0000  1.0000  -1.3725   0.0000   0.0000   0.0000  -14.4758
  -0.400   0.0052   0.02077   0.01197  -0.0333  1.0000  1.0000  -1.3166   0.0000   0.0000   0.0000   6.6336
  -0.300   0.0127   0.02098   0.01208  -0.0331  1.0000  1.0000  -1.2611   0.0000   0.0000   0.0000   2.8761
  -0.200   0.0200   0.02121   0.01220  -0.0330  1.0000  1.0000  -1.2061   0.0000   0.0000   0.0000   1.9037
  -0.100   0.0274   0.02144   0.01234  -0.0329  1.0000  1.0000  -1.1516   0.0000   0.0000   0.0000   1.4573
   0.000   0.0346   0.02168   0.01249  -0.0328  1.0000  1.0000  -1.0977   0.0000   0.0000   0.0000   1.2012
   0.100   0.0417   0.02193   0.01265  -0.0328  1.0000  1.0000  -1.0443   0.0000   0.0000   0.0000   1.0351
   0.200   0.0488   0.02219   0.01283  -0.0327  1.0000  1.0000  -0.9913   0.0000   0.0000   0.0000   0.9188
   0.300   0.0559   0.02246   0.01303  -0.0326  1.0000  1.0000  -0.9386   0.0000   0.0000   0.0000   0.8328
   0.400   0.0628   0.02274   0.01320  -0.0325  1.0000  1.0000  -0.8820   0.0000   0.0000   0.0000   0.7666
   0.500   0.0697   0.02303   0.01341  -0.0325  1.0000  1.0000  -0.8317   0.0000   0.0000   0.0000   0.7142
   0.600   0.0886   0.02356   0.01386  -0.0347  0.9944  1.0000  -0.7453   0.0000   0.0000   0.0000   0.6394
   0.700   0.1103   0.02416   0.01435  -0.0373  0.9872  1.0000  -0.6518   0.0000   0.0000   0.0000   0.5860
   0.800   0.1309   0.02469   0.01480  -0.0397  0.9796  1.0000  -0.5712   0.0000   0.0000   0.0000   0.5510
   0.900   0.1555   0.02541   0.01542  -0.0427  0.9732  1.0000  -0.4921   0.0000   0.0000   0.0000   0.5223
   1.000   0.1706   0.02573   0.01569  -0.0440  0.9653  1.0000  -0.4751   0.0000   0.0000   0.0000   0.5059
   1.100   0.1902   0.02619   0.01609  -0.0461  0.9576  1.0000  -0.4905   0.0000   0.0000   0.0000   0.4901
   1.200   0.2161   0.02686   0.01669  -0.0492  0.9511  1.0000  -0.5109   0.0000   0.0000   0.0000   0.4753
   1.300   0.2283   0.02711   0.01689  -0.0499  0.9427  1.0000  -0.5217   0.0000   0.0000   0.0000   0.4663
   1.400   0.2461   0.02748   0.01721  -0.0515  0.9348  1.0000  -0.5366   0.0000   0.0000   0.0000   0.4571
   1.500   0.2712   0.02802   0.01770  -0.0544  0.9284  1.0000  -0.5568   0.0000   0.0000   0.0000   0.4480
   1.600   0.2836   0.02830   0.01794  -0.0550  0.9202  1.0000  -0.5689   0.0000   0.0000   0.0000   0.4415
   1.700   0.2992   0.02859   0.01821  -0.0562  0.9118  1.0000  -0.5840   0.0000   0.0000   0.0000   0.4352
   1.800   0.3239   0.02899   0.01858  -0.0587  0.9050  1.0000  -0.6062   0.0000   0.0000   0.0000   0.4288
   1.900   0.3377   0.02929   0.01886  -0.0595  0.8973  1.0000  -0.6201   0.0000   0.0000   0.0000   0.4236
   2.000   0.3501   0.02953   0.01908  -0.0601  0.8887  1.0000  -0.6330   0.0000   0.0000   0.0000   0.4189
   2.100   0.3738   0.02981   0.01935  -0.0623  0.8818  1.0000  -0.6550   0.0000   0.0000   0.0000   0.4140
   2.200   0.3904   0.03009   0.01962  -0.0634  0.8743  1.0000  -0.6729   0.0000   0.0000   0.0000   0.4097
   2.300   0.4003   0.03029   0.01982  -0.0635  0.8651  1.0000  -0.6856   0.0000   0.0000   0.0000   0.4057
   2.400   0.4237   0.03048   0.02002  -0.0655  0.8583  1.0000  -0.7101   0.0000   0.0000   0.0000   0.4017
   2.500   0.4428   0.03069   0.02024  -0.0669  0.8514  1.0000  -0.7310   0.0000   0.0000   0.0000   0.3981
   2.600   0.4494   0.03092   0.02047  -0.0664  0.8418  1.0000  -0.7408   0.0000   0.0000   0.0000   0.3947
   2.700   0.4729   0.03099   0.02055  -0.0683  0.8348  1.0000  -0.7661   0.0000   0.0000   0.0000   0.3912
   2.800   0.4955   0.03106   0.02064  -0.0699  0.8282  1.0000  -0.7918   0.0000   0.0000   0.0000   0.3879
   2.900   0.4989   0.03136   0.02094  -0.0690  0.8182  1.0000  -0.8003   0.0000   0.0000   0.0000   0.3850
   3.000   0.5221   0.03132   0.02093  -0.0706  0.8114  1.0000  -0.8288   0.0000   0.0000   0.0000   0.3819
   3.100   0.5540   0.03108   0.02074  -0.0733  0.8061  1.0000  -0.8666   0.0000   0.0000   0.0000   0.3790
   3.200   0.5492   0.03159   0.02124  -0.0713  0.7947  1.0000  -0.8667   0.0000   0.0000   0.0000   0.3763
   3.300   0.5740   0.03138   0.02107  -0.0729  0.7877  1.0000  -0.8977   0.0000   0.0000   0.0000   0.3735
   3.400   0.6097   0.03086   0.02068  -0.0758  0.7832  1.0000  -0.9414   0.0000   0.0000   0.0000   0.3707
   3.500   0.6015   0.03155   0.02136  -0.0734  0.7712  1.0000  -0.9382   0.0000   0.0000   0.0000   0.3683
   3.600   0.6273   0.03118   0.02105  -0.0749  0.7644  1.0000  -0.9754   0.0000   0.0000   0.0000   0.3656
   3.700   0.6596   0.03048   0.02041  -0.0768  0.7596  1.0000  -1.0212   0.0000   0.0000   0.0000   0.3627
   3.800   0.6556   0.03115   0.02108  -0.0750  0.7478  1.0000  -1.0227   0.0000   0.0000   0.0000   0.3605
   3.900   0.6783   0.03074   0.02072  -0.0759  0.7409  1.0000  -1.0575   0.0000   0.0000   0.0000   0.3579
   4.000   0.7081   0.02997   0.02002  -0.0773  0.7359  1.0000  -1.1016   0.0000   0.0000   0.0000   0.3551
   4.100   0.7062   0.03062   0.02068  -0.0757  0.7241  1.0000  -1.1056   0.0000   0.0000   0.0000   0.3531
   4.200   0.7281   0.03012   0.02023  -0.0763  0.7167  1.0000  -1.1441   0.0000   0.0000   0.0000   0.3505
   4.300   0.7572   0.02924   0.01940  -0.0774  0.7114  1.0000  -1.1951   0.0000   0.0000   0.0000   0.3479
   4.400   0.7551   0.02996   0.02014  -0.0758  0.6993  1.0000  -1.2001   0.0000   0.0000   0.0000   0.3460
   4.500   0.7763   0.02942   0.01966  -0.0761  0.6918  1.0000  -1.2400   0.0000   0.0000   0.0000   0.3436
   4.600   0.7974   0.02890   0.01924  -0.0764  0.6846  1.0000  -1.2803   0.0000   0.0000   0.0000   0.3412
   4.700   0.8012   0.02930   0.01969  -0.0753  0.6729  1.0000  -1.2943   0.0000   0.0000   0.0000   0.3393
   4.800   0.8241   0.02860   0.01901  -0.0755  0.6654  1.0000  -1.3431   0.0000   0.0000   0.0000   0.3370
   4.900   0.8317   0.02885   0.01930  -0.0748  0.6551  1.0000  -1.3669   0.0000   0.0000   0.0000   0.3351
   5.000   0.8453   0.02869   0.01917  -0.0744  0.6453  1.0000  -1.4044   0.0000   0.0000   0.0000   0.3331
   5.100   0.8671   0.02808   0.01854  -0.0745  0.6375  1.0000  -1.4623   0.0000   0.0000   0.0000   0.3309
   5.200   0.8691   0.02864   0.01917  -0.0733  0.6252  1.0000  -1.4792   0.0000   0.0000   0.0000   0.3292
   5.300   0.8891   0.02809   0.01859  -0.0732  0.6163  1.0000  -1.5345   0.0000   0.0000   0.0000   0.3272
   5.400   0.8943   0.02852   0.01907  -0.0723  0.6050  1.0000  -1.5579   0.0000   0.0000   0.0000   0.3255
   5.500   0.9089   0.02832   0.01887  -0.0719  0.5949  1.0000  -1.6021   0.0000   0.0000   0.0000   0.3237
   5.600   0.9197   0.02841   0.01898  -0.0713  0.5846  1.0000  -1.6381   0.0000   0.0000   0.0000   0.3220
   5.700   0.9292   0.02854   0.01913  -0.0706  0.5733  1.0000  -1.6718   0.0000   0.0000   0.0000   0.3204
   5.800   0.9444   0.02837   0.01890  -0.0702  0.5636  1.0000  -1.7183   0.0000   0.0000   0.0000   0.3186
   5.900   0.9498   0.02877   0.01947  -0.0693  0.5516  1.0000  -1.7427   0.0000   0.0000   0.0000   0.3171
   6.000   0.9674   0.02848   0.01908  -0.0690  0.5421  1.0000  -1.8274   0.0000   0.0000   0.0000   0.3155
   6.100   0.9703   0.02909   0.01980  -0.0680  0.5301  1.0000  -1.8643   0.0000   0.0000   0.0000   0.3141
   6.200   0.9852   0.02893   0.01956  -0.0676  0.5197  1.0000  -1.9571   0.0000   0.0000   0.0000   0.3125
   6.300   0.9906   0.02941   0.02012  -0.0667  0.5083  1.0000  -2.0127   0.0000   0.0000   0.0000   0.3112
   6.400   1.0029   0.02941   0.02007  -0.0662  0.4974  1.0000  -2.1025   0.0000   0.0000   0.0000   0.3097
   6.500   1.0107   0.02979   0.02048  -0.0655  0.4866  1.0000  -2.1705   0.0000   0.0000   0.0000   0.3083
   6.600   1.0204   0.03000   0.02069  -0.0649  0.4755  1.0000  -2.2484   0.0000   0.0000   0.0000   0.3070
   6.700   1.0312   0.03024   0.02089  -0.0643  0.4655  1.0000  -2.3323   0.0000   0.0000   0.0000   0.3057
   6.800   1.0378   0.03064   0.02137  -0.0635  0.4541  1.0000  -2.3961   0.0000   0.0000   0.0000   0.3044
   6.900   1.0515   0.03069   0.02128  -0.0632  0.4439  1.0000  -2.4979   0.0000   0.0000   0.0000   0.3031
   7.000   1.0553   0.03127   0.02200  -0.0622  0.4327  1.0000  -2.5478   0.0000   0.0000   0.0000   0.3019
   7.100   1.0694   0.03128   0.02186  -0.0618  0.4223  1.0000  -2.6536   0.0000   0.0000   0.0000   0.3007
   7.200   1.0730   0.03196   0.02269  -0.0609  0.4120  1.0000  -2.7022   0.0000   0.0000   0.0000   0.2995
   7.300   1.0835   0.03220   0.02298  -0.0604  0.4019  1.0000  -2.7894   0.0000   0.0000   0.0000   0.2983
   7.400   1.0919   0.03270   0.02348  -0.0598  0.3922  1.0000  -2.8649   0.0000   0.0000   0.0000   0.2972
   7.500   1.0986   0.03314   0.02400  -0.0590  0.3818  1.0000  -2.9319   0.0000   0.0000   0.0000   0.2961
   7.600   1.1113   0.03334   0.02403  -0.0587  0.3717  1.0000  -3.0341   0.0000   0.0000   0.0000   0.2950
   7.700   1.1143   0.03400   0.02489  -0.0576  0.3617  1.0000  -3.0806   0.0000   0.0000   0.0000   0.2938
   7.800   1.1268   0.03414   0.02488  -0.0573  0.3516  1.0000  -3.1835   0.0000   0.0000   0.0000   0.2928
   7.900   1.1314   0.03493   0.02580  -0.0564  0.3428  1.0000  -3.2363   0.0000   0.0000   0.0000   0.2917
   8.000   1.1386   0.03546   0.02640  -0.0557  0.3336  1.0000  -3.3050   0.0000   0.0000   0.0000   0.2907
   8.100   1.1513   0.03584   0.02660  -0.0555  0.3243  1.0000  -3.4076   0.0000   0.0000   0.0000   0.2898
   8.200   1.1531   0.03665   0.02765  -0.0544  0.3157  1.0000  -3.4452   0.0000   0.0000   0.0000   0.2886
   8.300   1.1635   0.03686   0.02777  -0.0539  0.3057  1.0000  -3.5386   0.0000   0.0000   0.0000   0.2876
   8.400   1.1698   0.03756   0.02851  -0.0531  0.2969  1.0000  -3.6038   0.0000   0.0000   0.0000   0.2866
   8.500   1.1744   0.03818   0.02925  -0.0522  0.2880  1.0000  -3.6597   0.0000   0.0000   0.0000   0.2855
   8.600   1.1890   0.03857   0.02939  -0.0522  0.2788  1.0000  -3.7747   0.0000   0.0000   0.0000   0.2848
   8.700   1.1895   0.03961   0.03071  -0.0510  0.2722  1.0000  -3.7997   0.0000   0.0000   0.0000   0.2837
   8.800   1.1945   0.04029   0.03150  -0.0501  0.2640  1.0000  -3.8553   0.0000   0.0000   0.0000   0.2827
   8.900   1.2085   0.04066   0.03158  -0.0501  0.2542  1.0000  -3.9703   0.0000   0.0000   0.0000   0.2820
   9.000   1.2075   0.04162   0.03286  -0.0487  0.2475  1.0000  -3.9887   0.0000   0.0000   0.0000   0.2808
   9.100   1.2133   0.04210   0.03338  -0.0479  0.2389  1.0000  -4.0531   0.0000   0.0000   0.0000   0.2797
   9.200   1.2255   0.04279   0.03393  -0.0478  0.2303  1.0000  -4.1517   0.0000   0.0000   0.0000   0.2791
   9.300   1.2246   0.04401   0.03547  -0.0465  0.2252  1.0000  -4.1618   0.0000   0.0000   0.0000   0.2780
   9.400   1.2277   0.04504   0.03665  -0.0455  0.2190  1.0000  -4.1977   0.0000   0.0000   0.0000   0.2770
   9.500   1.2435   0.04551   0.03681  -0.0457  0.2092  1.0000  -4.3163   0.0000   0.0000   0.0000   0.2764
   9.600   1.2410   0.04679   0.03837  -0.0442  0.2046  1.0000  -4.3184   0.0000   0.0000   0.0000   0.2753
   9.700   1.2402   0.04782   0.03962  -0.0429  0.1987  1.0000  -4.3336   0.0000   0.0000   0.0000   0.2741
   9.800   1.2539   0.04777   0.03930  -0.0427  0.1877  1.0000  -4.4480   0.0000   0.0000   0.0000   0.2734
   9.900   1.2545   0.04934   0.04100  -0.0417  0.1830  1.0000  -4.4604   0.0000   0.0000   0.0000   0.2725
  10.000   1.2509   0.05081   0.04276  -0.0403  0.1795  1.0000  -4.4490   0.0000   0.0000   0.0000   0.2713
  10.100   1.2502   0.05207   0.04419  -0.0391  0.1746  1.0000  -4.4555   0.0000   0.0000   0.0000   0.2703
  10.200   1.2668   0.05232   0.04403  -0.0393  0.1621  1.0000  -4.5737   0.0000   0.0000   0.0000   0.2698
  10.300   1.2601   0.05356   0.04557  -0.0376  0.1592  1.0000  -4.5519   0.0000   0.0000   0.0000   0.2685
  10.400   1.2550   0.05474   0.04696  -0.0361  0.1552  1.0000  -4.5413   0.0000   0.0000   0.0000   0.2673
  10.500   1.2730   0.05455   0.04625  -0.0363  0.1404  1.0000  -4.6720   0.0000   0.0000   0.0000   0.2669
  10.600   1.2657   0.05579   0.04778  -0.0346  0.1383  1.0000  -4.6453   0.0000   0.0000   0.0000   0.2656
  10.700   1.2588   0.05713   0.04936  -0.0331  0.1357  1.0000  -4.6216   0.0000   0.0000   0.0000   0.2644
  10.800   1.2532   0.05838   0.05077  -0.0317  0.1325  1.0000  -4.6068   0.0000   0.0000   0.0000   0.2633
  10.900   1.2734   0.05864   0.05049  -0.0323  0.1191  1.0000  -4.7291   0.0000   0.0000   0.0000   0.2631
  11.000   1.2657   0.05997   0.05206  -0.0307  0.1180  1.0000  -4.7001   0.0000   0.0000   0.0000   0.2619
  11.100   1.2578   0.06142   0.05371  -0.0293  0.1169  1.0000  -4.6707   0.0000   0.0000   0.0000   0.2608
  11.200   1.2496   0.06294   0.05541  -0.0279  0.1159  1.0000  -4.6415   0.0000   0.0000   0.0000   0.2598
  11.300   1.2407   0.06444   0.05705  -0.0266  0.1152  1.0000  -4.6128   0.0000   0.0000   0.0000   0.2588
  11.400   1.2314   0.06597   0.05870  -0.0253  0.1146  1.0000  -4.5839   0.0000   0.0000   0.0000   0.2578
  11.500   1.2217   0.06760   0.06044  -0.0242  0.1143  1.0000  -4.5537   0.0000   0.0000   0.0000   0.2569
  11.600   1.2116   0.06934   0.06229  -0.0232  0.1141  1.0000  -4.5216   0.0000   0.0000   0.0000   0.2562
  11.700   1.2012   0.07121   0.06426  -0.0226  0.1142  1.0000  -4.4875   0.0000   0.0000   0.0000   0.2557
  11.800   1.1904   0.07322   0.06636  -0.0221  0.1144  1.0000  -4.4511   0.0000   0.0000   0.0000   0.2554
  11.900   1.1794   0.07537   0.06860  -0.0220  0.1148  1.0000  -4.4126   0.0000   0.0000   0.0000   0.2553
  12.000   1.1682   0.07768   0.07098  -0.0220  0.1154  1.0000  -4.3721   0.0000   0.0000   0.0000   0.2554
  12.100   1.1571   0.08013   0.07351  -0.0223  0.1159  1.0000  -4.3299   0.0000   0.0000   0.0000   0.2557
  12.200   1.1460   0.08274   0.07616  -0.0229  0.1165  1.0000  -4.2861   0.0000   0.0000   0.0000   0.2563
  12.300   1.1350   0.08549   0.07897  -0.0236  0.1172  1.0000  -4.2406   0.0000   0.0000   0.0000   0.2570
  12.400   1.1243   0.08839   0.08191  -0.0246  0.1177  1.0000  -4.1933   0.0000   0.0000   0.0000   0.2580
  12.500   1.1137   0.09144   0.08500  -0.0257  0.1183  1.0000  -4.1443   0.0000   0.0000   0.0000   0.2591
  12.600   1.1035   0.09464   0.08822  -0.0270  0.1188  1.0000  -4.0933   0.0000   0.0000   0.0000   0.2603
  12.700   1.0935   0.09799   0.09158  -0.0284  0.1192  1.0000  -4.0400   0.0000   0.0000   0.0000   0.2617
  13.600   0.8579   0.17119   0.16398  -0.0842  0.2898  1.0000  -2.0197   0.0000   0.0000   0.0000   0.3355
  13.700   0.8638   0.17304   0.16587  -0.0843  0.2854  1.0000  -2.0400   0.0000   0.0000   0.0000   0.3348
  13.800   0.9068   0.18199   0.17504  -0.0821  0.2781  1.0000  -2.1818   0.0000   0.0000   0.0000   0.3278
  13.900   0.8971   0.18225   0.17525  -0.0834  0.2776  1.0000  -2.1387   0.0000   0.0000   0.0000   0.3301
  14.000   0.8866   0.18207   0.17503  -0.0847  0.2768  1.0000  -2.0944   0.0000   0.0000   0.0000   0.3325
  14.100   0.8762   0.18162   0.17454  -0.0860  0.2749  1.0000  -2.0499   0.0000   0.0000   0.0000   0.3350
  14.200   0.8699   0.18172   0.17462  -0.0871  0.2704  1.0000  -2.0195   0.0000   0.0000   0.0000   0.3368
  14.300   0.9125   0.19026   0.18336  -0.0838  0.2544  1.0000  -2.1489   0.0000   0.0000   0.0000   0.3285
  14.400   0.9028   0.19017   0.18323  -0.0853  0.2539  1.0000  -2.1061   0.0000   0.0000   0.0000   0.3310
  14.500   0.8925   0.18959   0.18261  -0.0867  0.2528  1.0000  -2.0626   0.0000   0.0000   0.0000   0.3335
  14.600   0.8836   0.18914   0.18212  -0.0882  0.2503  1.0000  -2.0218   0.0000   0.0000   0.0000   0.3360
  14.700   0.8806   0.18977   0.18274  -0.0892  0.2460  1.0000  -1.9980   0.0000   0.0000   0.0000   0.3374
  14.800   0.8834   0.19124   0.18423  -0.0896  0.2409  1.0000  -1.9925   0.0000   0.0000   0.0000   0.3373
  14.900   0.9109   0.19835   0.19145  -0.0872  0.2305  1.0000  -2.0554   0.0000   0.0000   0.0000   0.3317
  15.000   0.9028   0.19800   0.19107  -0.0888  0.2295  1.0000  -2.0161   0.0000   0.0000   0.0000   0.3340


