xflr5 v6.61

 Calculated polar for: SD7037-092-88

 1 1 Reynolds number fixed          Mach number fixed         

 xtrf =   1.000 (top)        1.000 (bottom)
 Mach =   0.000     Re =     0.475 e 6     Ncrit =   9.000

  alpha     CL        CD       CDp       Cm    Top Xtr Bot Xtr   Cpmin    Chinge    XCp    
 ------- -------- --------- --------- -------- ------- ------- -------- --------- ---------
 -10.000  -0.3809   0.10221   0.09978  -0.0322  1.0000  0.0161  -2.0810   0.0000   0.0000   0.0000   0.1577
  -9.900  -0.3794   0.10107   0.09865  -0.0323  1.0000  0.0162  -2.0631   0.0000   0.0000   0.0000   0.1572
  -9.800  -0.3779   0.09995   0.09754  -0.0324  1.0000  0.0164  -2.0465   0.0000   0.0000   0.0000   0.1566
  -9.700  -0.3763   0.09886   0.09645  -0.0326  1.0000  0.0165  -2.0292   0.0000   0.0000   0.0000   0.1560
  -9.600  -0.3747   0.09778   0.09538  -0.0327  1.0000  0.0166  -2.0122   0.0000   0.0000   0.0000   0.1555
  -9.500  -0.3732   0.09670   0.09431  -0.0328  1.0000  0.0167  -1.9974   0.0000   0.0000   0.0000   0.1548
  -9.400  -0.3718   0.09562   0.09324  -0.0329  1.0000  0.0168  -1.9840   0.0000   0.0000   0.0000   0.1542
  -9.300  -0.3706   0.09453   0.09215  -0.0331  1.0000  0.0169  -1.9730   0.0000   0.0000   0.0000   0.1536
  -9.200  -0.3695   0.09342   0.09106  -0.0333  1.0000  0.0170  -1.9643   0.0000   0.0000   0.0000   0.1530
  -9.100  -0.3685   0.09231   0.08996  -0.0334  1.0000  0.0172  -1.9582   0.0000   0.0000   0.0000   0.1524
  -9.000  -0.3678   0.09119   0.08885  -0.0336  1.0000  0.0173  -1.9544   0.0000   0.0000   0.0000   0.1519
  -8.900  -0.3674   0.09006   0.08773  -0.0338  1.0000  0.0174  -1.9530   0.0000   0.0000   0.0000   0.1515
  -8.800  -0.3672   0.08894   0.08662  -0.0339  1.0000  0.0176  -1.9538   0.0000   0.0000   0.0000   0.1511
  -8.700  -0.3673   0.08782   0.08552  -0.0340  1.0000  0.0177  -1.9568   0.0000   0.0000   0.0000   0.1510
  -8.600  -0.3678   0.08670   0.08442  -0.0341  1.0000  0.0178  -1.9617   0.0000   0.0000   0.0000   0.1510
  -8.500  -0.3687   0.08561   0.08334  -0.0341  1.0000  0.0180  -1.9687   0.0000   0.0000   0.0000   0.1514
  -8.400  -0.3701   0.08454   0.08229  -0.0340  1.0000  0.0181  -1.9776   0.0000   0.0000   0.0000   0.1521
  -8.300  -0.3722   0.08351   0.08128  -0.0338  1.0000  0.0182  -1.9884   0.0000   0.0000   0.0000   0.1533
  -8.200  -0.3751   0.08254   0.08032  -0.0334  1.0000  0.0184  -2.0011   0.0000   0.0000   0.0000   0.1550
  -8.100  -0.3787   0.08162   0.07942  -0.0329  1.0000  0.0185  -2.0156   0.0000   0.0000   0.0000   0.1574
  -8.000  -0.3833   0.08077   0.07860  -0.0322  1.0000  0.0185  -2.0318   0.0000   0.0000   0.0000   0.1605
  -7.900  -0.3888   0.07999   0.07784  -0.0313  1.0000  0.0186  -2.0496   0.0000   0.0000   0.0000   0.1641
  -7.800  -0.3951   0.07927   0.07714  -0.0303  1.0000  0.0187  -2.0687   0.0000   0.0000   0.0000   0.1681
  -7.700  -0.4023   0.07861   0.07651  -0.0291  1.0000  0.0187  -2.0893   0.0000   0.0000   0.0000   0.1726
  -7.600  -0.4105   0.07803   0.07594  -0.0278  1.0000  0.0187  -2.1114   0.0000   0.0000   0.0000   0.1775
  -7.500  -0.4197   0.07751   0.07545  -0.0263  1.0000  0.0187  -2.1350   0.0000   0.0000   0.0000   0.1827
  -7.400  -0.4206   0.07608   0.07404  -0.0275  0.9991  0.0188  -2.1557   0.0000   0.0000   0.0000   0.1801
  -7.300  -0.4125   0.07357   0.07153  -0.0316  0.9972  0.0191  -2.1768   0.0000   0.0000   0.0000   0.1689
  -7.200  -0.4026   0.07069   0.06864  -0.0366  0.9951  0.0195  -2.2061   0.0000   0.0000   0.0000   0.1547
  -7.100  -0.3925   0.06761   0.06554  -0.0420  0.9932  0.0200  -2.2476   0.0000   0.0000   0.0000   0.1385
  -7.000  -0.3813   0.06415   0.06206  -0.0480  0.9915  0.0205  -2.3055   0.0000   0.0000   0.0000   0.1195
  -6.900  -0.3716   0.06072   0.05859  -0.0533  0.9895  0.0210  -2.3775   0.0000   0.0000   0.0000   0.1021
  -6.800  -0.3611   0.05684   0.05464  -0.0586  0.9866  0.0219  -2.4926   0.0000   0.0000   0.0000   0.0831
  -6.700  -0.3442   0.05404   0.05172  -0.0627  0.9845  0.0229  -2.5811   0.0000   0.0000   0.0000   0.0627
  -6.600  -0.3337   0.05117   0.04873  -0.0661  0.9822  0.0230  -2.6570   0.0000   0.0000   0.0000   0.0468
  -6.500  -0.3238   0.04853   0.04595  -0.0690  0.9802  0.0231  -2.7203   0.0000   0.0000   0.0000   0.0315
  -6.400  -0.3135   0.04607   0.04335  -0.0716  0.9785  0.0231  -2.7730   0.0000   0.0000   0.0000   0.0161
  -6.300  -0.3163   0.03770   0.03469  -0.0770  0.9760  0.0245  -3.0617   0.0000   0.0000   0.0000   0.0007
  -6.200  -0.3043   0.03673   0.03371  -0.0783  0.9752  0.0250  -2.9740   0.0000   0.0000   0.0000  -0.0131
  -6.100  -0.2916   0.03604   0.03302  -0.0795  0.9745  0.0255  -2.8763   0.0000   0.0000   0.0000  -0.0285
  -6.000  -0.2784   0.03528   0.03221  -0.0808  0.9738  0.0262  -2.7901   0.0000   0.0000   0.0000  -0.0462
  -5.900  -0.2649   0.03437   0.03125  -0.0822  0.9732  0.0271  -2.7206   0.0000   0.0000   0.0000  -0.0664
  -5.800  -0.2510   0.03330   0.03010  -0.0837  0.9726  0.0282  -2.6681   0.0000   0.0000   0.0000  -0.0895
  -5.700  -0.2452   0.03251   0.02923  -0.0831  0.9693  0.0292  -2.6435   0.0000   0.0000   0.0000  -0.0950
  -5.600  -0.2347   0.03176   0.02839  -0.0832  0.9670  0.0307  -2.6098   0.0000   0.0000   0.0000  -0.1110
  -5.200  -0.1896   0.02566   0.02155  -0.0863  0.9598  0.0359  -2.5711   0.0000   0.0000   0.0000  -0.2130
  -5.100  -0.1777   0.02455   0.02038  -0.0871  0.9584  0.0368  -2.5033   0.0000   0.0000   0.0000  -0.2481
  -5.000  -0.1649   0.02377   0.01957  -0.0878  0.9572  0.0376  -2.4213   0.0000   0.0000   0.0000  -0.2907
  -4.900  -0.1519   0.02328   0.01909  -0.0885  0.9561  0.0387  -2.3212   0.0000   0.0000   0.0000  -0.3413
  -4.700  -0.1248   0.01797   0.01284  -0.0881  0.9534  0.0241  -2.6217   0.0000   0.0000   0.0000  -0.4670
  -4.600  -0.1110   0.01760   0.01249  -0.0885  0.9523  0.0224  -2.5384   0.0000   0.0000   0.0000  -0.5592
  -4.500  -0.0993   0.01610   0.01081  -0.0887  0.9509  0.0213  -2.5298   0.0000   0.0000   0.0000  -0.6563
  -4.400  -0.0898   0.01526   0.00986  -0.0883  0.9486  0.0206  -2.4962   0.0000   0.0000   0.0000  -0.7471
  -4.300  -0.0814   0.01457   0.00908  -0.0876  0.9458  0.0201  -2.4594   0.0000   0.0000   0.0000  -0.8420
  -4.200  -0.0716   0.01392   0.00834  -0.0872  0.9431  0.0196  -2.4221   0.0000   0.0000   0.0000  -0.9851
  -4.100  -0.0610   0.01333   0.00766  -0.0869  0.9406  0.0191  -2.4079   0.0000   0.0000   0.0000  -1.1937
  -4.000  -0.0500   0.01280   0.00706  -0.0867  0.9383  0.0188  -2.3848   0.0000   0.0000   0.0000  -1.5064
  -3.900  -0.0388   0.01236   0.00655  -0.0866  0.9361  0.0185  -2.3541   0.0000   0.0000   0.0000  -2.0104
  -3.800  -0.0275   0.01197   0.00611  -0.0865  0.9340  0.0183  -2.3180   0.0000   0.0000   0.0000  -2.9378
  -3.700  -0.0161   0.01162   0.00571  -0.0864  0.9320  0.0182  -2.2776   0.0000   0.0000   0.0000  -5.1644
  -3.600  -0.0050   0.01131   0.00536  -0.0862  0.9300  0.0182  -2.2341   0.0000   0.0000   0.0000  -17.3505
  -3.500   0.0062   0.01104   0.00505  -0.0861  0.9279  0.0182  -2.1881   0.0000   0.0000   0.0000  14.2468
  -3.400   0.0168   0.01080   0.00478  -0.0858  0.9255  0.0183  -2.1417   0.0000   0.0000   0.0000   5.4222
  -3.300   0.0262   0.01058   0.00454  -0.0854  0.9224  0.0184  -2.0967   0.0000   0.0000   0.0000   3.5417
  -3.200   0.0362   0.01038   0.00430  -0.0850  0.9192  0.0186  -2.0498   0.0000   0.0000   0.0000   2.6266
  -3.100   0.0465   0.01018   0.00408  -0.0847  0.9161  0.0189  -2.0017   0.0000   0.0000   0.0000   2.0916
  -3.000   0.0571   0.00999   0.00386  -0.0845  0.9131  0.0193  -1.9531   0.0000   0.0000   0.0000   1.7450
  -2.900   0.0678   0.00981   0.00365  -0.0843  0.9103  0.0199  -1.9049   0.0000   0.0000   0.0000   1.5044
  -2.800   0.0786   0.00965   0.00346  -0.0840  0.9077  0.0207  -1.8583   0.0000   0.0000   0.0000   1.3287
  -2.700   0.0895   0.00950   0.00328  -0.0838  0.9051  0.0218  -1.8140   0.0000   0.0000   0.0000   1.1938
  -2.600   0.1007   0.00939   0.00311  -0.0836  0.9025  0.0230  -1.7706   0.0000   0.0000   0.0000   1.0874
  -2.500   0.1108   0.00916   0.00289  -0.0833  0.8991  0.0287  -1.7542   0.0000   0.0000   0.0000   1.0075
  -2.400   0.1209   0.00890   0.00273  -0.0830  0.8954  0.0515  -1.7239   0.0000   0.0000   0.0000   0.9417
  -2.300   0.1308   0.00859   0.00261  -0.0828  0.8917  0.0975  -1.6721   0.0000   0.0000   0.0000   0.8874
  -2.200   0.1411   0.00838   0.00252  -0.0826  0.8881  0.1312  -1.6064   0.0000   0.0000   0.0000   0.8394
  -2.100   0.1514   0.00816   0.00243  -0.0825  0.8847  0.1717  -1.5360   0.0000   0.0000   0.0000   0.7980
  -2.000   0.1619   0.00795   0.00236  -0.0824  0.8815  0.2156  -1.4634   0.0000   0.0000   0.0000   0.7616
  -1.900   0.1723   0.00772   0.00229  -0.0822  0.8783  0.2679  -1.3900   0.0000   0.0000   0.0000   0.7296
  -1.800   0.1823   0.00752   0.00226  -0.0821  0.8742  0.3169  -1.3182   0.0000   0.0000   0.0000   0.7023
  -1.700   0.1926   0.00736   0.00222  -0.0819  0.8697  0.3554  -1.2457   0.0000   0.0000   0.0000   0.6772
  -1.600   0.2029   0.00720   0.00217  -0.0817  0.8653  0.3932  -1.1733   0.0000   0.0000   0.0000   0.6544
  -1.400   0.2237   0.00689   0.00206  -0.0814  0.8571  0.4756  -1.0282   0.0000   0.0000   0.0000   0.6146
  -1.300   0.2339   0.00671   0.00202  -0.0811  0.8531  0.5291  -0.9538   0.0000   0.0000   0.0000   0.5976
  -1.200   0.2434   0.00649   0.00203  -0.0808  0.8480  0.5948  -0.8872   0.0000   0.0000   0.0000   0.5826
  -1.100   0.2526   0.00629   0.00204  -0.0803  0.8426  0.6584  -0.8218   0.0000   0.0000   0.0000   0.5683
  -1.000   0.2618   0.00613   0.00203  -0.0797  0.8374  0.7109  -0.7574   0.0000   0.0000   0.0000   0.5548
  -0.900   0.2712   0.00602   0.00201  -0.0791  0.8327  0.7527  -0.6934   0.0000   0.0000   0.0000   0.5419
  -0.800   0.2804   0.00592   0.00201  -0.0785  0.8277  0.7858  -0.6309   0.0000   0.0000   0.0000   0.5300
  -0.700   0.2893   0.00583   0.00201  -0.0778  0.8217  0.8186  -0.5707   0.0000   0.0000   0.0000   0.5189
  -0.600   0.2979   0.00576   0.00199  -0.0770  0.8156  0.8493  -0.5335   0.0000   0.0000   0.0000   0.5082
  -0.500   0.3066   0.00571   0.00196  -0.0762  0.8099  0.8755  -0.5424   0.0000   0.0000   0.0000   0.4981
  -0.400   0.3156   0.00567   0.00194  -0.0755  0.8043  0.8979  -0.5520   0.0000   0.0000   0.0000   0.4886
  -0.300   0.3257   0.00564   0.00192  -0.0750  0.7978  0.9179  -0.5625   0.0000   0.0000   0.0000   0.4797
  -0.200   0.3378   0.00562   0.00188  -0.0750  0.7911  0.9382  -0.5743   0.0000   0.0000   0.0000   0.4713
  -0.100   0.3531   0.00561   0.00183  -0.0757  0.7847  0.9582  -0.5880   0.0000   0.0000   0.0000   0.4635
   0.000   0.3706   0.00559   0.00178  -0.0770  0.7780  0.9761  -0.6030   0.0000   0.0000   0.0000   0.4567
   0.100   0.3890   0.00559   0.00173  -0.0785  0.7704  0.9911  -0.6197   0.0000   0.0000   0.0000   0.4506
   0.200   0.4049   0.00560   0.00168  -0.0795  0.7629  1.0000  -0.6351   0.0000   0.0000   0.0000   0.4450
   0.300   0.4149   0.00564   0.00166  -0.0792  0.7556  1.0000  -0.6467   0.0000   0.0000   0.0000   0.4395
   0.400   0.4249   0.00567   0.00165  -0.0789  0.7475  1.0000  -0.6583   0.0000   0.0000   0.0000   0.4343
   0.500   0.4349   0.00571   0.00164  -0.0786  0.7393  1.0000  -0.6700   0.0000   0.0000   0.0000   0.4293
   0.600   0.4450   0.00576   0.00163  -0.0783  0.7318  1.0000  -0.6825   0.0000   0.0000   0.0000   0.4245
   0.700   0.4553   0.00580   0.00162  -0.0781  0.7235  1.0000  -0.6957   0.0000   0.0000   0.0000   0.4200
   0.800   0.4654   0.00585   0.00162  -0.0779  0.7152  1.0000  -0.7088   0.0000   0.0000   0.0000   0.4156
   0.900   0.4757   0.00590   0.00162  -0.0777  0.7075  1.0000  -0.7220   0.0000   0.0000   0.0000   0.4114
   1.000   0.4861   0.00594   0.00162  -0.0775  0.6991  1.0000  -0.7354   0.0000   0.0000   0.0000   0.4075
   1.100   0.4963   0.00601   0.00162  -0.0772  0.6908  1.0000  -0.7487   0.0000   0.0000   0.0000   0.4036
   1.200   0.5067   0.00606   0.00164  -0.0770  0.6831  1.0000  -0.7624   0.0000   0.0000   0.0000   0.4000
   1.300   0.5171   0.00611   0.00165  -0.0769  0.6745  1.0000  -0.7775   0.0000   0.0000   0.0000   0.3965
   1.400   0.5273   0.00618   0.00165  -0.0766  0.6659  1.0000  -0.7925   0.0000   0.0000   0.0000   0.3931
   1.500   0.5378   0.00623   0.00167  -0.0765  0.6581  1.0000  -0.8076   0.0000   0.0000   0.0000   0.3899
   1.600   0.5483   0.00629   0.00169  -0.0763  0.6497  1.0000  -0.8229   0.0000   0.0000   0.0000   0.3868
   1.700   0.5585   0.00636   0.00170  -0.0761  0.6413  1.0000  -0.8381   0.0000   0.0000   0.0000   0.3838
   1.800   0.5690   0.00642   0.00172  -0.0760  0.6334  1.0000  -0.8534   0.0000   0.0000   0.0000   0.3809
   1.900   0.5795   0.00648   0.00174  -0.0758  0.6246  1.0000  -0.8689   0.0000   0.0000   0.0000   0.3781
   2.000   0.5897   0.00656   0.00176  -0.0756  0.6159  1.0000  -0.8851   0.0000   0.0000   0.0000   0.3754
   2.100   0.6003   0.00662   0.00179  -0.0754  0.6080  1.0000  -0.9028   0.0000   0.0000   0.0000   0.3729
   2.200   0.6108   0.00668   0.00182  -0.0753  0.5994  1.0000  -0.9203   0.0000   0.0000   0.0000   0.3704
   2.300   0.6210   0.00677   0.00185  -0.0751  0.5912  1.0000  -0.9378   0.0000   0.0000   0.0000   0.3679
   2.400   0.6316   0.00682   0.00188  -0.0750  0.5833  1.0000  -0.9556   0.0000   0.0000   0.0000   0.3656
   2.500   0.6420   0.00689   0.00191  -0.0748  0.5742  1.0000  -0.9734   0.0000   0.0000   0.0000   0.3634
   2.600   0.6521   0.00699   0.00196  -0.0746  0.5655  1.0000  -0.9909   0.0000   0.0000   0.0000   0.3612
   2.700   0.6628   0.00704   0.00200  -0.0745  0.5570  1.0000  -1.0090   0.0000   0.0000   0.0000   0.3591
   2.800   0.6731   0.00712   0.00204  -0.0743  0.5481  1.0000  -1.0290   0.0000   0.0000   0.0000   0.3570
   2.900   0.6833   0.00721   0.00208  -0.0741  0.5403  1.0000  -1.0494   0.0000   0.0000   0.0000   0.3550
   3.000   0.6940   0.00727   0.00212  -0.0740  0.5324  1.0000  -1.0704   0.0000   0.0000   0.0000   0.3531
   3.100   0.7043   0.00736   0.00216  -0.0739  0.5236  1.0000  -1.0911   0.0000   0.0000   0.0000   0.3512
   3.200   0.7145   0.00745   0.00221  -0.0737  0.5152  1.0000  -1.1117   0.0000   0.0000   0.0000   0.3494
   3.300   0.7250   0.00752   0.00226  -0.0736  0.5062  1.0000  -1.1328   0.0000   0.0000   0.0000   0.3476
   3.400   0.7351   0.00762   0.00231  -0.0734  0.4968  1.0000  -1.1535   0.0000   0.0000   0.0000   0.3459
   3.500   0.7455   0.00770   0.00236  -0.0732  0.4884  1.0000  -1.1747   0.0000   0.0000   0.0000   0.3442
   3.600   0.7559   0.00778   0.00241  -0.0731  0.4797  1.0000  -1.1986   0.0000   0.0000   0.0000   0.3426
   3.700   0.7660   0.00789   0.00247  -0.0729  0.4714  1.0000  -1.2229   0.0000   0.0000   0.0000   0.3410
   3.800   0.7765   0.00796   0.00253  -0.0728  0.4637  1.0000  -1.2477   0.0000   0.0000   0.0000   0.3394
   3.900   0.7868   0.00805   0.00258  -0.0726  0.4548  1.0000  -1.2726   0.0000   0.0000   0.0000   0.3379
   4.100   0.8072   0.00825   0.00274  -0.0723  0.4368  1.0000  -1.3222   0.0000   0.0000   0.0000   0.3350
   4.200   0.8172   0.00836   0.00280  -0.0721  0.4270  1.0000  -1.3470   0.0000   0.0000   0.0000   0.3336
   4.300   0.8273   0.00847   0.00287  -0.0719  0.4184  1.0000  -1.3720   0.0000   0.0000   0.0000   0.3322
   4.400   0.8377   0.00855   0.00294  -0.0718  0.4099  1.0000  -1.3975   0.0000   0.0000   0.0000   0.3308
   4.500   0.8477   0.00867   0.00302  -0.0716  0.4013  1.0000  -1.4300   0.0000   0.0000   0.0000   0.3295
   4.600   0.8579   0.00877   0.00309  -0.0714  0.3934  1.0000  -1.4651   0.0000   0.0000   0.0000   0.3282
   4.700   0.8681   0.00887   0.00317  -0.0713  0.3843  1.0000  -1.5006   0.0000   0.0000   0.0000   0.3270
   4.800   0.8778   0.00901   0.00325  -0.0710  0.3747  1.0000  -1.5353   0.0000   0.0000   0.0000   0.3257
   4.900   0.8881   0.00911   0.00333  -0.0709  0.3661  1.0000  -1.5714   0.0000   0.0000   0.0000   0.3245
   5.000   0.8980   0.00923   0.00342  -0.0707  0.3564  1.0000  -1.6070   0.0000   0.0000   0.0000   0.3233
   5.100   0.9078   0.00937   0.00351  -0.0705  0.3477  1.0000  -1.6426   0.0000   0.0000   0.0000   0.3221
   5.200   0.9181   0.00946   0.00359  -0.0704  0.3398  1.0000  -1.6795   0.0000   0.0000   0.0000   0.3210
   5.300   0.9280   0.00959   0.00369  -0.0702  0.3313  1.0000  -1.7207   0.0000   0.0000   0.0000   0.3199
   5.400   0.9378   0.00972   0.00378  -0.0700  0.3235  1.0000  -1.7622   0.0000   0.0000   0.0000   0.3188
   5.500   0.9481   0.00982   0.00391  -0.0698  0.3159  1.0000  -1.8111   0.0000   0.0000   0.0000   0.3177
   5.600   0.9578   0.00996   0.00401  -0.0696  0.3074  1.0000  -1.8883   0.0000   0.0000   0.0000   0.3166
   5.700   0.9676   0.01010   0.00412  -0.0694  0.2991  1.0000  -1.9675   0.0000   0.0000   0.0000   0.3156
   5.800   0.9775   0.01022   0.00422  -0.0692  0.2896  1.0000  -2.0487   0.0000   0.0000   0.0000   0.3145
   6.000   0.9967   0.01053   0.00444  -0.0688  0.2696  1.0000  -2.2118   0.0000   0.0000   0.0000   0.3125
   6.100   1.0058   0.01072   0.00457  -0.0685  0.2586  1.0000  -2.2934   0.0000   0.0000   0.0000   0.3115
   6.200   1.0156   0.01086   0.00468  -0.0683  0.2493  1.0000  -2.3781   0.0000   0.0000   0.0000   0.3105
   6.300   1.0250   0.01103   0.00481  -0.0681  0.2393  1.0000  -2.4627   0.0000   0.0000   0.0000   0.3096
   6.400   1.0342   0.01121   0.00494  -0.0678  0.2298  1.0000  -2.5471   0.0000   0.0000   0.0000   0.3086
   6.500   1.0440   0.01135   0.00506  -0.0676  0.2209  1.0000  -2.6348   0.0000   0.0000   0.0000   0.3077
   6.600   1.0529   0.01156   0.00520  -0.0673  0.2112  1.0000  -2.7200   0.0000   0.0000   0.0000   0.3067
   6.700   1.0626   0.01170   0.00533  -0.0671  0.2039  1.0000  -2.8092   0.0000   0.0000   0.0000   0.3058
   6.800   1.0721   0.01185   0.00546  -0.0669  0.1961  1.0000  -2.8986   0.0000   0.0000   0.0000   0.3049
   6.900   1.0810   0.01206   0.00564  -0.0666  0.1875  1.0000  -2.9885   0.0000   0.0000   0.0000   0.3040
   7.000   1.0907   0.01220   0.00578  -0.0663  0.1811  1.0000  -3.0814   0.0000   0.0000   0.0000   0.3032
   7.100   1.1001   0.01236   0.00592  -0.0661  0.1737  1.0000  -3.1731   0.0000   0.0000   0.0000   0.3023
   7.200   1.1089   0.01258   0.00608  -0.0658  0.1656  1.0000  -3.2625   0.0000   0.0000   0.0000   0.3014
   7.300   1.1184   0.01273   0.00623  -0.0655  0.1594  1.0000  -3.3558   0.0000   0.0000   0.0000   0.3006
   7.400   1.1277   0.01289   0.00637  -0.0653  0.1523  1.0000  -3.4491   0.0000   0.0000   0.0000   0.2997
   7.500   1.1362   0.01313   0.00656  -0.0650  0.1442  1.0000  -3.5394   0.0000   0.0000   0.0000   0.2989
   7.600   1.1454   0.01330   0.00671  -0.0647  0.1379  1.0000  -3.6335   0.0000   0.0000   0.0000   0.2981
   7.700   1.1546   0.01347   0.00687  -0.0644  0.1309  1.0000  -3.7279   0.0000   0.0000   0.0000   0.2972
   7.800   1.1628   0.01373   0.00707  -0.0640  0.1222  1.0000  -3.8184   0.0000   0.0000   0.0000   0.2964
   7.900   1.1718   0.01391   0.00724  -0.0637  0.1159  1.0000  -3.9131   0.0000   0.0000   0.0000   0.2956
   8.000   1.1807   0.01410   0.00741  -0.0634  0.1096  1.0000  -4.0078   0.0000   0.0000   0.0000   0.2948
   8.100   1.1890   0.01435   0.00760  -0.0631  0.1027  1.0000  -4.0998   0.0000   0.0000   0.0000   0.2940
   8.200   1.1977   0.01455   0.00780  -0.0627  0.0970  1.0000  -4.1934   0.0000   0.0000   0.0000   0.2932
   8.300   1.2065   0.01474   0.00798  -0.0624  0.0920  1.0000  -4.2885   0.0000   0.0000   0.0000   0.2924
   8.400   1.2147   0.01498   0.00819  -0.0620  0.0855  1.0000  -4.3802   0.0000   0.0000   0.0000   0.2916
   8.500   1.2226   0.01525   0.00842  -0.0616  0.0783  1.0000  -4.4698   0.0000   0.0000   0.0000   0.2908
   8.600   1.2312   0.01545   0.00864  -0.0612  0.0735  1.0000  -4.5617   0.0000   0.0000   0.0000   0.2900
   8.700   1.2389   0.01573   0.00888  -0.0608  0.0668  1.0000  -4.6491   0.0000   0.0000   0.0000   0.2892
   8.800   1.2464   0.01603   0.00913  -0.0603  0.0595  1.0000  -4.7335   0.0000   0.0000   0.0000   0.2884
   8.900   1.2541   0.01630   0.00939  -0.0598  0.0530  1.0000  -4.8166   0.0000   0.0000   0.0000   0.2875
   9.000   1.2601   0.01672   0.00972  -0.0591  0.0435  1.0000  -4.8882   0.0000   0.0000   0.0000   0.2866
   9.100   1.2659   0.01716   0.01009  -0.0584  0.0343  1.0000  -4.9531   0.0000   0.0000   0.0000   0.2857
   9.200   1.2710   0.01765   0.01052  -0.0575  0.0254  1.0000  -5.0072   0.0000   0.0000   0.0000   0.2847
   9.300   1.2761   0.01815   0.01097  -0.0567  0.0197  1.0000  -5.0541   0.0000   0.0000   0.0000   0.2837
   9.400   1.2827   0.01849   0.01132  -0.0560  0.0178  1.0000  -5.1165   0.0000   0.0000   0.0000   0.2828
   9.500   1.2887   0.01887   0.01170  -0.0552  0.0163  1.0000  -5.1785   0.0000   0.0000   0.0000   0.2819
   9.600   1.2944   0.01927   0.01211  -0.0544  0.0150  1.0000  -5.2323   0.0000   0.0000   0.0000   0.2810
   9.700   1.2994   0.01973   0.01262  -0.0535  0.0140  1.0000  -5.2775   0.0000   0.0000   0.0000   0.2799
   9.800   1.3046   0.02014   0.01308  -0.0526  0.0135  1.0000  -5.3552   0.0000   0.0000   0.0000   0.2790
   9.900   1.3108   0.02045   0.01344  -0.0519  0.0133  1.0000  -5.4469   0.0000   0.0000   0.0000   0.2781
  10.000   1.3165   0.02078   0.01381  -0.0511  0.0131  1.0000  -5.5365   0.0000   0.0000   0.0000   0.2772
  10.100   1.3216   0.02112   0.01420  -0.0502  0.0129  1.0000  -5.6223   0.0000   0.0000   0.0000   0.2762
  10.200   1.3260   0.02146   0.01458  -0.0492  0.0127  1.0000  -5.7044   0.0000   0.0000   0.0000   0.2751
  10.300   1.3299   0.02181   0.01498  -0.0481  0.0126  1.0000  -5.7838   0.0000   0.0000   0.0000   0.2741
  10.400   1.3335   0.02218   0.01539  -0.0470  0.0124  1.0000  -5.8614   0.0000   0.0000   0.0000   0.2730
  10.500   1.3367   0.02256   0.01582  -0.0458  0.0123  1.0000  -5.9375   0.0000   0.0000   0.0000   0.2719
  10.600   1.3397   0.02296   0.01627  -0.0446  0.0122  1.0000  -6.0121   0.0000   0.0000   0.0000   0.2708
  10.700   1.3425   0.02338   0.01673  -0.0435  0.0121  1.0000  -6.0854   0.0000   0.0000   0.0000   0.2697
  10.800   1.3451   0.02381   0.01721  -0.0423  0.0120  1.0000  -6.1581   0.0000   0.0000   0.0000   0.2686
  10.900   1.3475   0.02426   0.01774  -0.0412  0.0119  1.0000  -6.2276   0.0000   0.0000   0.0000   0.2676
  11.000   1.3499   0.02472   0.01825  -0.0401  0.0117  1.0000  -6.2999   0.0000   0.0000   0.0000   0.2666
  11.100   1.3522   0.02520   0.01876  -0.0390  0.0116  1.0000  -6.3729   0.0000   0.0000   0.0000   0.2656
  11.200   1.3543   0.02568   0.01930  -0.0379  0.0115  1.0000  -6.4453   0.0000   0.0000   0.0000   0.2646
  11.300   1.3564   0.02619   0.01984  -0.0369  0.0114  1.0000  -6.5181   0.0000   0.0000   0.0000   0.2636
  11.400   1.3585   0.02670   0.02040  -0.0359  0.0113  1.0000  -6.5915   0.0000   0.0000   0.0000   0.2627
  11.500   1.3603   0.02724   0.02098  -0.0349  0.0112  1.0000  -6.6639   0.0000   0.0000   0.0000   0.2617
  11.600   1.3620   0.02779   0.02157  -0.0339  0.0111  1.0000  -6.7363   0.0000   0.0000   0.0000   0.2608
  11.700   1.3637   0.02835   0.02218  -0.0330  0.0109  1.0000  -6.8089   0.0000   0.0000   0.0000   0.2600
  11.800   1.3652   0.02895   0.02281  -0.0321  0.0108  1.0000  -6.8798   0.0000   0.0000   0.0000   0.2591
  11.900   1.3665   0.02956   0.02347  -0.0312  0.0107  1.0000  -6.9503   0.0000   0.0000   0.0000   0.2583
  12.000   1.3677   0.03020   0.02416  -0.0303  0.0106  1.0000  -7.0196   0.0000   0.0000   0.0000   0.2575
  12.100   1.3686   0.03088   0.02488  -0.0295  0.0105  1.0000  -7.0861   0.0000   0.0000   0.0000   0.2567
  12.200   1.3693   0.03158   0.02563  -0.0287  0.0105  1.0000  -7.1515   0.0000   0.0000   0.0000   0.2559
  12.300   1.3698   0.03233   0.02642  -0.0279  0.0104  1.0000  -7.2137   0.0000   0.0000   0.0000   0.2552
  12.400   1.3700   0.03311   0.02725  -0.0271  0.0103  1.0000  -7.2734   0.0000   0.0000   0.0000   0.2545
  12.500   1.3701   0.03393   0.02812  -0.0264  0.0103  1.0000  -7.3307   0.0000   0.0000   0.0000   0.2538
  12.600   1.3699   0.03479   0.02903  -0.0258  0.0102  1.0000  -7.3858   0.0000   0.0000   0.0000   0.2531
  12.700   1.3697   0.03567   0.02996  -0.0251  0.0102  1.0000  -7.4403   0.0000   0.0000   0.0000   0.2525
  12.800   1.3692   0.03660   0.03094  -0.0246  0.0102  1.0000  -7.4926   0.0000   0.0000   0.0000   0.2519
  12.900   1.3688   0.03755   0.03195  -0.0240  0.0101  1.0000  -7.5445   0.0000   0.0000   0.0000   0.2513
  13.000   1.3681   0.03856   0.03301  -0.0236  0.0101  1.0000  -7.5941   0.0000   0.0000   0.0000   0.2508
  13.100   1.3674   0.03959   0.03409  -0.0231  0.0100  1.0000  -7.6432   0.0000   0.0000   0.0000   0.2503
  13.200   1.3665   0.04067   0.03523  -0.0228  0.0100  1.0000  -7.6901   0.0000   0.0000   0.0000   0.2499
  13.300   1.3656   0.04178   0.03639  -0.0224  0.0100  1.0000  -7.7363   0.0000   0.0000   0.0000   0.2495
  13.400   1.3644   0.04294   0.03761  -0.0222  0.0099  1.0000  -7.7803   0.0000   0.0000   0.0000   0.2491
  13.500   1.3632   0.04413   0.03885  -0.0220  0.0099  1.0000  -7.8232   0.0000   0.0000   0.0000   0.2488
  13.600   1.3618   0.04536   0.04015  -0.0218  0.0099  1.0000  -7.8638   0.0000   0.0000   0.0000   0.2485
  13.700   1.3603   0.04663   0.04147  -0.0217  0.0099  1.0000  -7.9036   0.0000   0.0000   0.0000   0.2482
  13.800   1.3587   0.04796   0.04285  -0.0217  0.0098  1.0000  -7.9412   0.0000   0.0000   0.0000   0.2480
  13.900   1.3570   0.04932   0.04427  -0.0217  0.0098  1.0000  -7.9781   0.0000   0.0000   0.0000   0.2479
  14.000   1.3552   0.05073   0.04574  -0.0218  0.0098  1.0000  -8.0124   0.0000   0.0000   0.0000   0.2478
  14.100   1.3533   0.05217   0.04724  -0.0219  0.0097  1.0000  -8.0459   0.0000   0.0000   0.0000   0.2477
  14.200   1.3512   0.05367   0.04880  -0.0221  0.0097  1.0000  -8.0767   0.0000   0.0000   0.0000   0.2476
  14.300   1.3491   0.05521   0.05039  -0.0223  0.0097  1.0000  -8.1064   0.0000   0.0000   0.0000   0.2476
  14.400   1.3467   0.05680   0.05204  -0.0226  0.0097  1.0000  -8.1332   0.0000   0.0000   0.0000   0.2477
  14.500   1.3442   0.05842   0.05373  -0.0229  0.0097  1.0000  -8.1584   0.0000   0.0000   0.0000   0.2478
  14.600   1.3415   0.06011   0.05548  -0.0233  0.0096  1.0000  -8.1813   0.0000   0.0000   0.0000   0.2479
  14.700   1.3388   0.06184   0.05727  -0.0238  0.0096  1.0000  -8.2025   0.0000   0.0000   0.0000   0.2481
  14.800   1.3359   0.06363   0.05912  -0.0243  0.0096  1.0000  -8.2217   0.0000   0.0000   0.0000   0.2483
  14.900   1.3329   0.06547   0.06102  -0.0249  0.0096  1.0000  -8.2386   0.0000   0.0000   0.0000   0.2486
  15.000   1.3299   0.06736   0.06298  -0.0255  0.0096  1.0000  -8.2538   0.0000   0.0000   0.0000   0.2489


