xflr5 v6.61

 Calculated polar for: SD7037-092-88

 1 1 Reynolds number fixed          Mach number fixed         

 xtrf =   1.000 (top)        1.000 (bottom)
 Mach =   0.000     Re =     0.175 e 6     Ncrit =   9.000

  alpha     CL        CD       CDp       Cm    Top Xtr Bot Xtr   Cpmin    Chinge    XCp    
 ------- -------- --------- --------- -------- ------- ------- -------- --------- ---------
 -10.000  -0.3642   0.11062   0.10663  -0.0287  1.0000  0.0438  -1.4968   0.0000   0.0000   0.0000   0.1638
  -9.900  -0.3632   0.10943   0.10545  -0.0292  1.0000  0.0444  -1.5085   0.0000   0.0000   0.0000   0.1624
  -9.800  -0.3625   0.10825   0.10429  -0.0297  1.0000  0.0450  -1.5227   0.0000   0.0000   0.0000   0.1609
  -9.700  -0.3620   0.10710   0.10316  -0.0303  1.0000  0.0457  -1.5404   0.0000   0.0000   0.0000   0.1593
  -9.600  -0.3619   0.10600   0.10208  -0.0310  1.0000  0.0464  -1.5628   0.0000   0.0000   0.0000   0.1574
  -9.500  -0.3623   0.10499   0.10109  -0.0319  1.0000  0.0471  -1.5914   0.0000   0.0000   0.0000   0.1552
  -9.400  -0.3631   0.10411   0.10023  -0.0329  1.0000  0.0477  -1.6257   0.0000   0.0000   0.0000   0.1526
  -9.300  -0.3640   0.10334   0.09949  -0.0340  1.0000  0.0483  -1.6608   0.0000   0.0000   0.0000   0.1500
  -9.200  -0.3650   0.10257   0.09874  -0.0350  1.0000  0.0486  -1.6928   0.0000   0.0000   0.0000   0.1476
  -9.100  -0.3654   0.10174   0.09793  -0.0358  1.0000  0.0489  -1.7172   0.0000   0.0000   0.0000   0.1457
  -9.000  -0.3655   0.10083   0.09705  -0.0364  1.0000  0.0491  -1.7364   0.0000   0.0000   0.0000   0.1443
  -8.900  -0.3658   0.09985   0.09609  -0.0369  1.0000  0.0492  -1.7552   0.0000   0.0000   0.0000   0.1431
  -8.800  -0.3664   0.09883   0.09509  -0.0373  1.0000  0.0493  -1.7741   0.0000   0.0000   0.0000   0.1422
  -8.700  -0.3673   0.09777   0.09406  -0.0377  1.0000  0.0494  -1.7932   0.0000   0.0000   0.0000   0.1415
  -8.600  -0.3684   0.09670   0.09301  -0.0380  1.0000  0.0494  -1.8125   0.0000   0.0000   0.0000   0.1410
  -8.500  -0.3700   0.09564   0.09197  -0.0383  1.0000  0.0495  -1.8323   0.0000   0.0000   0.0000   0.1408
  -8.400  -0.3721   0.09458   0.09095  -0.0385  1.0000  0.0495  -1.8524   0.0000   0.0000   0.0000   0.1410
  -8.300  -0.3748   0.09356   0.08996  -0.0385  1.0000  0.0496  -1.8730   0.0000   0.0000   0.0000   0.1417
  -8.200  -0.3782   0.09259   0.08901  -0.0385  1.0000  0.0496  -1.8939   0.0000   0.0000   0.0000   0.1430
  -8.100  -0.3825   0.09168   0.08813  -0.0383  1.0000  0.0496  -1.9153   0.0000   0.0000   0.0000   0.1449
  -8.000  -0.3876   0.09081   0.08730  -0.0379  1.0000  0.0496  -1.9370   0.0000   0.0000   0.0000   0.1472
  -7.900  -0.3927   0.08989   0.08641  -0.0377  1.0000  0.0496  -1.9597   0.0000   0.0000   0.0000   0.1493
  -7.800  -0.3964   0.08873   0.08528  -0.0380  1.0000  0.0497  -1.9844   0.0000   0.0000   0.0000   0.1495
  -7.700  -0.3997   0.08749   0.08405  -0.0385  1.0000  0.0497  -2.0105   0.0000   0.0000   0.0000   0.1492
  -7.600  -0.4040   0.08592   0.08253  -0.0390  1.0000  0.0497  -2.0466   0.0000   0.0000   0.0000   0.1492
  -7.500  -0.4192   0.08121   0.07786  -0.0387  1.0000  0.0507  -2.1428   0.0000   0.0000   0.0000   0.1535
  -7.400  -0.4240   0.07938   0.07606  -0.0381  1.0000  0.0512  -2.1574   0.0000   0.0000   0.0000   0.1560
  -7.300  -0.4234   0.07841   0.07510  -0.0359  1.0000  0.0517  -2.1135   0.0000   0.0000   0.0000   0.1611
  -7.200  -0.4236   0.07754   0.07425  -0.0345  1.0000  0.0522  -2.0847   0.0000   0.0000   0.0000   0.1646
  -7.100  -0.4243   0.07666   0.07339  -0.0334  1.0000  0.0526  -2.0651   0.0000   0.0000   0.0000   0.1673
  -7.000  -0.4251   0.07580   0.07255  -0.0325  1.0000  0.0531  -2.0485   0.0000   0.0000   0.0000   0.1697
  -6.900  -0.4258   0.07496   0.07172  -0.0317  1.0000  0.0535  -2.0326   0.0000   0.0000   0.0000   0.1718
  -6.800  -0.4269   0.07406   0.07084  -0.0311  1.0000  0.0540  -2.0220   0.0000   0.0000   0.0000   0.1736
  -6.700  -0.4280   0.07312   0.06988  -0.0306  1.0000  0.0544  -2.0148   0.0000   0.0000   0.0000   0.1749
  -6.600  -0.4292   0.07213   0.06890  -0.0303  1.0000  0.0549  -2.0110   0.0000   0.0000   0.0000   0.1759
  -6.500  -0.4303   0.07110   0.06787  -0.0301  1.0000  0.0554  -2.0093   0.0000   0.0000   0.0000   0.1767
  -6.400  -0.4311   0.07003   0.06681  -0.0300  1.0000  0.0559  -2.0085   0.0000   0.0000   0.0000   0.1772
  -6.300  -0.4318   0.06892   0.06570  -0.0300  1.0000  0.0565  -2.0096   0.0000   0.0000   0.0000   0.1774
  -6.200  -0.4322   0.06775   0.06454  -0.0301  1.0000  0.0572  -2.0122   0.0000   0.0000   0.0000   0.1773
  -6.100  -0.4323   0.06653   0.06332  -0.0303  1.0000  0.0579  -2.0164   0.0000   0.0000   0.0000   0.1769
  -6.000  -0.4321   0.06527   0.06204  -0.0306  1.0000  0.0586  -2.0218   0.0000   0.0000   0.0000   0.1762
  -5.900  -0.4314   0.06398   0.06074  -0.0310  1.0000  0.0596  -2.0273   0.0000   0.0000   0.0000   0.1753
  -5.800  -0.4302   0.06264   0.05938  -0.0315  1.0000  0.0609  -2.0347   0.0000   0.0000   0.0000   0.1739
  -5.700  -0.4283   0.06120   0.05790  -0.0323  1.0000  0.0625  -2.0480   0.0000   0.0000   0.0000   0.1717
  -5.600  -0.4248   0.05960   0.05624  -0.0337  1.0000  0.0648  -2.0763   0.0000   0.0000   0.0000   0.1678
  -5.500  -0.4119   0.06014   0.05642  -0.0371  1.0000  0.0691  -2.1614   0.0000   0.0000   0.0000   0.1570
  -5.400  -0.4046   0.05937   0.05549  -0.0381  0.9994  0.0694  -2.1699   0.0000   0.0000   0.0000   0.1528
  -5.300  -0.4054   0.05162   0.04771  -0.0421  0.9978  0.0717  -2.2658   0.0000   0.0000   0.0000   0.1433
  -5.200  -0.3962   0.05039   0.04662  -0.0422  0.9963  0.0732  -2.1732   0.0000   0.0000   0.0000   0.1407
  -5.100  -0.3847   0.04946   0.04574  -0.0429  0.9946  0.0749  -2.0954   0.0000   0.0000   0.0000   0.1356
  -5.000  -0.3716   0.04832   0.04459  -0.0442  0.9928  0.0767  -2.0370   0.0000   0.0000   0.0000   0.1281
  -4.900  -0.3571   0.04695   0.04316  -0.0461  0.9912  0.0787  -1.9922   0.0000   0.0000   0.0000   0.1180
  -4.800  -0.3440   0.04553   0.04166  -0.0477  0.9890  0.0812  -1.9602   0.0000   0.0000   0.0000   0.1083
  -4.700  -0.3297   0.04408   0.04007  -0.0496  0.9864  0.0847  -1.9395   0.0000   0.0000   0.0000   0.0965
  -4.600  -0.3114   0.04194   0.03738  -0.0535  0.9830  0.0933  -1.9923   0.0000   0.0000   0.0000   0.0748
  -4.500  -0.3004   0.03988   0.03538  -0.0546  0.9811  0.0949  -1.9404   0.0000   0.0000   0.0000   0.0650
  -4.200  -0.2483   0.02999   0.02420  -0.0581  0.9766  0.0514  -2.2718   0.0000   0.0000   0.0000   0.0113
  -4.100  -0.2335   0.02822   0.02240  -0.0590  0.9754  0.0457  -2.2495   0.0000   0.0000   0.0000  -0.0076
  -4.000  -0.2178   0.02622   0.02013  -0.0602  0.9743  0.0428  -2.2557   0.0000   0.0000   0.0000  -0.0314
  -3.900  -0.2012   0.02433   0.01787  -0.0611  0.9733  0.0398  -2.2798   0.0000   0.0000   0.0000  -0.0593
  -3.800  -0.1848   0.02286   0.01606  -0.0618  0.9721  0.0376  -2.2924   0.0000   0.0000   0.0000  -0.0902
  -3.700  -0.1742   0.02205   0.01507  -0.0614  0.9689  0.0366  -2.2699   0.0000   0.0000   0.0000  -0.1088
  -3.600  -0.1613   0.02142   0.01429  -0.0616  0.9661  0.0360  -2.2468   0.0000   0.0000   0.0000  -0.1384
  -3.500  -0.1472   0.02085   0.01360  -0.0620  0.9635  0.0356  -2.2221   0.0000   0.0000   0.0000  -0.1782
  -3.400  -0.1324   0.02025   0.01288  -0.0626  0.9611  0.0354  -2.1938   0.0000   0.0000   0.0000  -0.2306
  -3.300  -0.1169   0.01964   0.01218  -0.0633  0.9591  0.0354  -2.1649   0.0000   0.0000   0.0000  -0.3001
  -3.200  -0.1010   0.01900   0.01147  -0.0641  0.9572  0.0355  -2.1368   0.0000   0.0000   0.0000  -0.3943
  -3.100  -0.0849   0.01836   0.01078  -0.0650  0.9556  0.0359  -2.1087   0.0000   0.0000   0.0000  -0.5273
  -3.000  -0.0684   0.01777   0.01016  -0.0660  0.9540  0.0367  -2.0778   0.0000   0.0000   0.0000  -0.7272
  -2.900  -0.0514   0.01727   0.00964  -0.0671  0.9526  0.0379  -2.0407   0.0000   0.0000   0.0000  -1.0715
  -2.800  -0.0336   0.01687   0.00924  -0.0683  0.9513  0.0396  -1.9978   0.0000   0.0000   0.0000  -1.8056
  -2.700  -0.0175   0.01655   0.00890  -0.0693  0.9494  0.0419  -1.9586   0.0000   0.0000   0.0000  -3.7639
  -2.600  -0.0106   0.01629   0.00863  -0.0684  0.9442  0.0438  -1.9365   0.0000   0.0000   0.0000  -6.2464
  -2.500   0.0024   0.01602   0.00832  -0.0686  0.9408  0.0470  -1.9079   0.0000   0.0000   0.0000  29.7082
  -2.400   0.0170   0.01561   0.00790  -0.0692  0.9381  0.0543  -1.8816   0.0000   0.0000   0.0000   4.3717
  -2.300   0.0326   0.01512   0.00750  -0.0701  0.9357  0.0755  -1.8711   0.0000   0.0000   0.0000   2.4163
  -2.200   0.0474   0.01411   0.00714  -0.0711  0.9337  0.2064  -1.8762   0.0000   0.0000   0.0000   1.7623
  -2.100   0.0638   0.01369   0.00701  -0.0723  0.9319  0.2881  -1.7987   0.0000   0.0000   0.0000   1.3930
  -2.000   0.0801   0.01326   0.00696  -0.0736  0.9302  0.3845  -1.7098   0.0000   0.0000   0.0000   1.1747
  -1.900   0.0962   0.01283   0.00694  -0.0746  0.9288  0.4881  -1.6188   0.0000   0.0000   0.0000   1.0308
  -1.800   0.1113   0.01240   0.00697  -0.0752  0.9275  0.6055  -1.5290   0.0000   0.0000   0.0000   0.9298
  -1.700   0.1186   0.01213   0.00702  -0.0740  0.9237  0.6898  -1.4655   0.0000   0.0000   0.0000   0.8777
  -1.600   0.1224   0.01195   0.00704  -0.0721  0.9179  0.7527  -1.4142   0.0000   0.0000   0.0000   0.8419
  -1.500   0.1325   0.01177   0.00703  -0.0711  0.9146  0.8175  -1.3412   0.0000   0.0000   0.0000   0.7898
  -1.400   0.1476   0.01163   0.00697  -0.0712  0.9124  0.8762  -1.2519   0.0000   0.0000   0.0000   0.7349
  -1.300   0.1781   0.01148   0.00684  -0.0746  0.9126  0.9444  -1.1125   0.0000   0.0000   0.0000   0.6703
  -1.200   0.2193   0.01133   0.00659  -0.0805  0.9143  1.0000  -0.9361   0.0000   0.0000   0.0000   0.6181
  -1.100   0.2351   0.01124   0.00643  -0.0814  0.9113  1.0000  -0.8520   0.0000   0.0000   0.0000   0.5968
  -1.000   0.2520   0.01116   0.00627  -0.0824  0.9088  1.0000  -0.7658   0.0000   0.0000   0.0000   0.5775
  -0.900   0.2692   0.01106   0.00611  -0.0834  0.9065  1.0000  -0.6800   0.0000   0.0000   0.0000   0.5603
  -0.800   0.2863   0.01095   0.00594  -0.0844  0.9044  1.0000  -0.5961   0.0000   0.0000   0.0000   0.5451
  -0.700   0.3035   0.01085   0.00578  -0.0855  0.9025  1.0000  -0.5265   0.0000   0.0000   0.0000   0.5316
  -0.600   0.3056   0.01089   0.00579  -0.0837  0.8941  1.0000  -0.5312   0.0000   0.0000   0.0000   0.5237
  -0.500   0.3172   0.01082   0.00567  -0.0836  0.8895  1.0000  -0.5416   0.0000   0.0000   0.0000   0.5134
  -0.400   0.3307   0.01073   0.00553  -0.0839  0.8858  1.0000  -0.5542   0.0000   0.0000   0.0000   0.5032
  -0.300   0.3450   0.01062   0.00538  -0.0843  0.8827  1.0000  -0.5673   0.0000   0.0000   0.0000   0.4937
  -0.200   0.3598   0.01052   0.00522  -0.0847  0.8799  1.0000  -0.5808   0.0000   0.0000   0.0000   0.4848
  -0.100   0.3697   0.01048   0.00516  -0.0843  0.8750  1.0000  -0.5912   0.0000   0.0000   0.0000   0.4774
   0.000   0.3775   0.01047   0.00510  -0.0836  0.8682  1.0000  -0.6002   0.0000   0.0000   0.0000   0.4705
   0.100   0.3888   0.01040   0.00499  -0.0834  0.8633  1.0000  -0.6126   0.0000   0.0000   0.0000   0.4635
   0.200   0.4015   0.01030   0.00485  -0.0834  0.8593  1.0000  -0.6261   0.0000   0.0000   0.0000   0.4567
   0.300   0.4146   0.01020   0.00471  -0.0835  0.8559  1.0000  -0.6399   0.0000   0.0000   0.0000   0.4502
   0.400   0.4239   0.01019   0.00466  -0.0830  0.8500  1.0000  -0.6510   0.0000   0.0000   0.0000   0.4445
   0.500   0.4331   0.01017   0.00462  -0.0824  0.8432  1.0000  -0.6621   0.0000   0.0000   0.0000   0.4390
   0.600   0.4442   0.01010   0.00451  -0.0822  0.8379  1.0000  -0.6750   0.0000   0.0000   0.0000   0.4336
   0.700   0.4562   0.01002   0.00439  -0.0821  0.8334  1.0000  -0.6896   0.0000   0.0000   0.0000   0.4284
   0.800   0.4675   0.00997   0.00430  -0.0819  0.8283  1.0000  -0.7036   0.0000   0.0000   0.0000   0.4235
   0.900   0.4763   0.00998   0.00429  -0.0813  0.8206  1.0000  -0.7157   0.0000   0.0000   0.0000   0.4190
   1.000   0.4870   0.00994   0.00422  -0.0810  0.8144  1.0000  -0.7293   0.0000   0.0000   0.0000   0.4145
   1.100   0.4987   0.00987   0.00411  -0.0808  0.8092  1.0000  -0.7438   0.0000   0.0000   0.0000   0.4102
   1.200   0.5091   0.00986   0.00406  -0.0805  0.8026  1.0000  -0.7573   0.0000   0.0000   0.0000   0.4062
   1.300   0.5188   0.00986   0.00405  -0.0801  0.7947  1.0000  -0.7717   0.0000   0.0000   0.0000   0.4023
   1.400   0.5297   0.00984   0.00398  -0.0798  0.7882  1.0000  -0.7873   0.0000   0.0000   0.0000   0.3985
   1.500   0.5415   0.00980   0.00388  -0.0797  0.7828  1.0000  -0.8038   0.0000   0.0000   0.0000   0.3949
   1.600   0.5507   0.00984   0.00391  -0.0792  0.7737  1.0000  -0.8178   0.0000   0.0000   0.0000   0.3915
   1.700   0.5612   0.00983   0.00387  -0.0789  0.7661  1.0000  -0.8332   0.0000   0.0000   0.0000   0.3882
   1.800   0.5726   0.00983   0.00379  -0.0787  0.7597  1.0000  -0.8495   0.0000   0.0000   0.0000   0.3849
   1.900   0.5823   0.00987   0.00382  -0.0783  0.7509  1.0000  -0.8642   0.0000   0.0000   0.0000   0.3820
   2.000   0.5926   0.00989   0.00380  -0.0780  0.7428  1.0000  -0.8803   0.0000   0.0000   0.0000   0.3790
   2.100   0.6037   0.00991   0.00375  -0.0777  0.7358  1.0000  -0.8985   0.0000   0.0000   0.0000   0.3761
   2.200   0.6135   0.00996   0.00379  -0.0774  0.7267  1.0000  -0.9154   0.0000   0.0000   0.0000   0.3734
   2.300   0.6238   0.01000   0.00378  -0.0771  0.7181  1.0000  -0.9329   0.0000   0.0000   0.0000   0.3707
   2.500   0.6444   0.01010   0.00381  -0.0765  0.7013  1.0000  -0.9681   0.0000   0.0000   0.0000   0.3657
   2.600   0.6547   0.01016   0.00384  -0.0762  0.6927  1.0000  -0.9859   0.0000   0.0000   0.0000   0.3633
   2.700   0.6652   0.01023   0.00385  -0.0760  0.6848  1.0000  -1.0039   0.0000   0.0000   0.0000   0.3610
   2.800   0.6751   0.01029   0.00390  -0.0756  0.6751  1.0000  -1.0227   0.0000   0.0000   0.0000   0.3588
   2.900   0.6854   0.01036   0.00391  -0.0753  0.6666  1.0000  -1.0432   0.0000   0.0000   0.0000   0.3566
   3.000   0.6956   0.01044   0.00395  -0.0751  0.6580  1.0000  -1.0636   0.0000   0.0000   0.0000   0.3545
   3.100   0.7055   0.01051   0.00400  -0.0748  0.6484  1.0000  -1.0838   0.0000   0.0000   0.0000   0.3524
   3.200   0.7158   0.01060   0.00402  -0.0745  0.6401  1.0000  -1.1046   0.0000   0.0000   0.0000   0.3504
   3.300   0.7257   0.01068   0.00408  -0.0742  0.6307  1.0000  -1.1248   0.0000   0.0000   0.0000   0.3485
   3.400   0.7357   0.01077   0.00413  -0.0739  0.6213  1.0000  -1.1454   0.0000   0.0000   0.0000   0.3466
   3.500   0.7459   0.01088   0.00416  -0.0736  0.6131  1.0000  -1.1663   0.0000   0.0000   0.0000   0.3447
   3.600   0.7557   0.01095   0.00425  -0.0733  0.6031  1.0000  -1.1874   0.0000   0.0000   0.0000   0.3430
   3.700   0.7656   0.01105   0.00429  -0.0730  0.5940  1.0000  -1.2115   0.0000   0.0000   0.0000   0.3412
   3.800   0.7755   0.01115   0.00436  -0.0727  0.5848  1.0000  -1.2355   0.0000   0.0000   0.0000   0.3395
   3.900   0.7854   0.01125   0.00444  -0.0724  0.5750  1.0000  -1.2595   0.0000   0.0000   0.0000   0.3379
   4.000   0.7952   0.01138   0.00448  -0.0721  0.5665  1.0000  -1.2839   0.0000   0.0000   0.0000   0.3362
   4.100   0.8051   0.01146   0.00463  -0.0718  0.5566  1.0000  -1.3081   0.0000   0.0000   0.0000   0.3347
   4.200   0.8148   0.01158   0.00470  -0.0715  0.5472  1.0000  -1.3324   0.0000   0.0000   0.0000   0.3332
   4.300   0.8246   0.01170   0.00478  -0.0712  0.5382  1.0000  -1.3568   0.0000   0.0000   0.0000   0.3317
   4.400   0.8343   0.01180   0.00487  -0.0709  0.5279  1.0000  -1.3812   0.0000   0.0000   0.0000   0.3302
   4.500   0.8438   0.01195   0.00494  -0.0705  0.5188  1.0000  -1.4104   0.0000   0.0000   0.0000   0.3287
   4.600   0.8535   0.01205   0.00505  -0.0702  0.5087  1.0000  -1.4443   0.0000   0.0000   0.0000   0.3273
   4.700   0.8630   0.01218   0.00514  -0.0699  0.4990  1.0000  -1.4783   0.0000   0.0000   0.0000   0.3259
   4.800   0.8726   0.01232   0.00524  -0.0696  0.4899  1.0000  -1.5125   0.0000   0.0000   0.0000   0.3246
   4.900   0.8822   0.01244   0.00535  -0.0693  0.4799  1.0000  -1.5468   0.0000   0.0000   0.0000   0.3233
   5.000   0.8915   0.01261   0.00544  -0.0689  0.4707  1.0000  -1.5811   0.0000   0.0000   0.0000   0.3219
   5.100   0.9011   0.01272   0.00557  -0.0686  0.4605  1.0000  -1.6158   0.0000   0.0000   0.0000   0.3207
   5.200   0.9103   0.01287   0.00567  -0.0683  0.4505  1.0000  -1.6502   0.0000   0.0000   0.0000   0.3194
   5.300   0.9196   0.01302   0.00579  -0.0679  0.4409  1.0000  -1.6849   0.0000   0.0000   0.0000   0.3182
   5.400   0.9290   0.01315   0.00592  -0.0676  0.4305  1.0000  -1.7198   0.0000   0.0000   0.0000   0.3170
   5.600   0.9475   0.01347   0.00624  -0.0669  0.4114  1.0000  -1.7960   0.0000   0.0000   0.0000   0.3146
   5.700   0.9565   0.01365   0.00637  -0.0665  0.4019  1.0000  -1.8695   0.0000   0.0000   0.0000   0.3135
   5.800   0.9657   0.01382   0.00651  -0.0662  0.3924  1.0000  -1.9450   0.0000   0.0000   0.0000   0.3123
   5.900   0.9747   0.01397   0.00666  -0.0658  0.3821  1.0000  -2.0214   0.0000   0.0000   0.0000   0.3112
   6.000   0.9833   0.01420   0.00680  -0.0654  0.3729  1.0000  -2.0972   0.0000   0.0000   0.0000   0.3101
   6.100   0.9926   0.01433   0.00697  -0.0651  0.3625  1.0000  -2.1764   0.0000   0.0000   0.0000   0.3090
   6.200   1.0012   0.01454   0.00712  -0.0647  0.3529  1.0000  -2.2539   0.0000   0.0000   0.0000   0.3079
   6.300   1.0102   0.01472   0.00730  -0.0643  0.3437  1.0000  -2.3336   0.0000   0.0000   0.0000   0.3069
   6.400   1.0192   0.01490   0.00747  -0.0640  0.3342  1.0000  -2.4138   0.0000   0.0000   0.0000   0.3059
   6.600   1.0367   0.01531   0.00784  -0.0632  0.3162  1.0000  -2.5752   0.0000   0.0000   0.0000   0.3039
   6.700   1.0450   0.01553   0.00802  -0.0628  0.3069  1.0000  -2.6557   0.0000   0.0000   0.0000   0.3028
   6.800   1.0535   0.01576   0.00822  -0.0624  0.2981  1.0000  -2.7372   0.0000   0.0000   0.0000   0.3018
   6.900   1.0622   0.01593   0.00841  -0.0620  0.2883  1.0000  -2.8206   0.0000   0.0000   0.0000   0.3009
   7.000   1.0699   0.01622   0.00861  -0.0615  0.2796  1.0000  -2.9006   0.0000   0.0000   0.0000   0.2999
   7.100   1.0789   0.01639   0.00887  -0.0611  0.2704  1.0000  -2.9892   0.0000   0.0000   0.0000   0.2989
   7.200   1.0871   0.01661   0.00907  -0.0607  0.2616  1.0000  -3.0730   0.0000   0.0000   0.0000   0.2980
   7.300   1.0947   0.01692   0.00930  -0.0602  0.2536  1.0000  -3.1546   0.0000   0.0000   0.0000   0.2970
   7.400   1.1037   0.01708   0.00953  -0.0599  0.2450  1.0000  -3.2420   0.0000   0.0000   0.0000   0.2961
   7.500   1.1115   0.01734   0.00975  -0.0594  0.2369  1.0000  -3.3255   0.0000   0.0000   0.0000   0.2952
   7.600   1.1192   0.01764   0.01001  -0.0589  0.2293  1.0000  -3.4084   0.0000   0.0000   0.0000   0.2943
   7.700   1.1279   0.01781   0.01024  -0.0585  0.2210  1.0000  -3.4965   0.0000   0.0000   0.0000   0.2934
   7.800   1.1352   0.01810   0.01047  -0.0580  0.2131  1.0000  -3.5798   0.0000   0.0000   0.0000   0.2925
   7.900   1.1428   0.01839   0.01074  -0.0575  0.2053  1.0000  -3.6639   0.0000   0.0000   0.0000   0.2916
   8.000   1.1511   0.01856   0.01096  -0.0571  0.1969  1.0000  -3.7526   0.0000   0.0000   0.0000   0.2907
   8.100   1.1578   0.01888   0.01120  -0.0565  0.1889  1.0000  -3.8349   0.0000   0.0000   0.0000   0.2898
   8.200   1.1655   0.01913   0.01147  -0.0560  0.1811  1.0000  -3.9213   0.0000   0.0000   0.0000   0.2890
   8.300   1.1735   0.01933   0.01169  -0.0556  0.1730  1.0000  -4.0099   0.0000   0.0000   0.0000   0.2881
   8.400   1.1798   0.01968   0.01197  -0.0550  0.1658  1.0000  -4.0910   0.0000   0.0000   0.0000   0.2872
   8.500   1.1874   0.01995   0.01227  -0.0545  0.1592  1.0000  -4.1771   0.0000   0.0000   0.0000   0.2864
   8.600   1.1954   0.02016   0.01253  -0.0540  0.1521  1.0000  -4.2658   0.0000   0.0000   0.0000   0.2856
   8.700   1.2017   0.02049   0.01281  -0.0534  0.1453  1.0000  -4.3476   0.0000   0.0000   0.0000   0.2847
   8.800   1.2080   0.02085   0.01319  -0.0528  0.1389  1.0000  -4.4273   0.0000   0.0000   0.0000   0.2838
   8.900   1.2162   0.02104   0.01345  -0.0524  0.1322  1.0000  -4.5173   0.0000   0.0000   0.0000   0.2830
   9.000   1.2226   0.02135   0.01374  -0.0518  0.1257  1.0000  -4.5995   0.0000   0.0000   0.0000   0.2821
   9.100   1.2270   0.02185   0.01415  -0.0509  0.1194  1.0000  -4.6696   0.0000   0.0000   0.0000   0.2812
   9.200   1.2356   0.02200   0.01441  -0.0505  0.1135  1.0000  -4.7609   0.0000   0.0000   0.0000   0.2804
   9.300   1.2422   0.02228   0.01470  -0.0500  0.1068  1.0000  -4.8436   0.0000   0.0000   0.0000   0.2796
   9.400   1.2464   0.02274   0.01509  -0.0491  0.1005  1.0000  -4.9123   0.0000   0.0000   0.0000   0.2786
   9.500   1.2533   0.02303   0.01543  -0.0485  0.0942  1.0000  -4.9915   0.0000   0.0000   0.0000   0.2778
   9.600   1.2596   0.02333   0.01575  -0.0479  0.0867  1.0000  -5.0684   0.0000   0.0000   0.0000   0.2770
   9.700   1.2616   0.02393   0.01625  -0.0468  0.0791  1.0000  -5.1209   0.0000   0.0000   0.0000   0.2759
   9.800   1.2686   0.02419   0.01657  -0.0463  0.0704  1.0000  -5.1915   0.0000   0.0000   0.0000   0.2752
   9.900   1.2687   0.02487   0.01713  -0.0449  0.0618  1.0000  -5.2248   0.0000   0.0000   0.0000   0.2739
  10.000   1.2714   0.02542   0.01770  -0.0437  0.0528  1.0000  -5.2526   0.0000   0.0000   0.0000   0.2728
  10.100   1.2690   0.02628   0.01846  -0.0419  0.0463  1.0000  -5.2570   0.0000   0.0000   0.0000   0.2713
  10.200   1.2675   0.02709   0.01929  -0.0402  0.0421  1.0000  -5.2524   0.0000   0.0000   0.0000   0.2699
  10.300   1.2693   0.02770   0.01995  -0.0390  0.0390  1.0000  -5.2732   0.0000   0.0000   0.0000   0.2687
  10.400   1.2707   0.02832   0.02060  -0.0378  0.0367  1.0000  -5.3000   0.0000   0.0000   0.0000   0.2676
  10.500   1.2711   0.02900   0.02129  -0.0366  0.0350  1.0000  -5.3329   0.0000   0.0000   0.0000   0.2665
  10.600   1.2703   0.02979   0.02210  -0.0352  0.0335  1.0000  -5.3669   0.0000   0.0000   0.0000   0.2653
  10.700   1.2679   0.03074   0.02307  -0.0338  0.0322  1.0000  -5.3865   0.0000   0.0000   0.0000   0.2641
  10.800   1.2645   0.03187   0.02424  -0.0323  0.0311  1.0000  -5.3936   0.0000   0.0000   0.0000   0.2628
  10.900   1.2641   0.03283   0.02524  -0.0311  0.0304  1.0000  -5.4208   0.0000   0.0000   0.0000   0.2618
  11.000   1.2670   0.03346   0.02594  -0.0303  0.0299  1.0000  -5.4771   0.0000   0.0000   0.0000   0.2609
  11.100   1.2695   0.03415   0.02670  -0.0295  0.0294  1.0000  -5.5298   0.0000   0.0000   0.0000   0.2601
  11.200   1.2717   0.03489   0.02750  -0.0287  0.0289  1.0000  -5.5800   0.0000   0.0000   0.0000   0.2593
  11.300   1.2738   0.03566   0.02834  -0.0279  0.0284  1.0000  -5.6289   0.0000   0.0000   0.0000   0.2584
  11.400   1.2759   0.03645   0.02921  -0.0271  0.0279  1.0000  -5.6771   0.0000   0.0000   0.0000   0.2577
  11.500   1.2778   0.03728   0.03010  -0.0264  0.0274  1.0000  -5.7247   0.0000   0.0000   0.0000   0.2569
  11.600   1.2798   0.03813   0.03101  -0.0257  0.0270  1.0000  -5.7719   0.0000   0.0000   0.0000   0.2561
  11.700   1.2817   0.03901   0.03200  -0.0250  0.0266  1.0000  -5.8170   0.0000   0.0000   0.0000   0.2554
  11.800   1.2836   0.03991   0.03296  -0.0244  0.0263  1.0000  -5.8629   0.0000   0.0000   0.0000   0.2547
  11.900   1.2854   0.04083   0.03395  -0.0238  0.0260  1.0000  -5.9086   0.0000   0.0000   0.0000   0.2541
  12.000   1.2872   0.04178   0.03496  -0.0232  0.0257  1.0000  -5.9538   0.0000   0.0000   0.0000   0.2534
  12.100   1.2888   0.04275   0.03600  -0.0226  0.0254  1.0000  -5.9978   0.0000   0.0000   0.0000   0.2528
  12.200   1.2901   0.04376   0.03709  -0.0220  0.0252  1.0000  -6.0400   0.0000   0.0000   0.0000   0.2522
  12.300   1.2913   0.04480   0.03820  -0.0215  0.0250  1.0000  -6.0809   0.0000   0.0000   0.0000   0.2516
  12.400   1.2924   0.04588   0.03935  -0.0210  0.0248  1.0000  -6.1204   0.0000   0.0000   0.0000   0.2511
  12.500   1.2932   0.04699   0.04054  -0.0206  0.0246  1.0000  -6.1579   0.0000   0.0000   0.0000   0.2505
  12.600   1.2937   0.04815   0.04178  -0.0201  0.0244  1.0000  -6.1931   0.0000   0.0000   0.0000   0.2500
  12.700   1.2938   0.04934   0.04306  -0.0197  0.0243  1.0000  -6.2253   0.0000   0.0000   0.0000   0.2496
  12.800   1.2935   0.05059   0.04439  -0.0194  0.0242  1.0000  -6.2540   0.0000   0.0000   0.0000   0.2491
  12.900   1.2927   0.05189   0.04578  -0.0190  0.0241  1.0000  -6.2797   0.0000   0.0000   0.0000   0.2487
  13.000   1.2917   0.05325   0.04723  -0.0188  0.0240  1.0000  -6.3024   0.0000   0.0000   0.0000   0.2483
  13.100   1.2901   0.05466   0.04874  -0.0185  0.0240  1.0000  -6.3213   0.0000   0.0000   0.0000   0.2480
  13.200   1.2882   0.05614   0.05031  -0.0184  0.0239  1.0000  -6.3369   0.0000   0.0000   0.0000   0.2477
  13.300   1.2858   0.05769   0.05195  -0.0183  0.0239  1.0000  -6.3485   0.0000   0.0000   0.0000   0.2475
  13.400   1.2829   0.05930   0.05366  -0.0183  0.0239  1.0000  -6.3562   0.0000   0.0000   0.0000   0.2474
  13.500   1.2795   0.06099   0.05545  -0.0183  0.0238  1.0000  -6.3595   0.0000   0.0000   0.0000   0.2473
  13.600   1.2757   0.06275   0.05731  -0.0185  0.0238  1.0000  -6.3590   0.0000   0.0000   0.0000   0.2473
  13.700   1.2713   0.06461   0.05927  -0.0187  0.0238  1.0000  -6.3540   0.0000   0.0000   0.0000   0.2473
  13.800   1.2665   0.06656   0.06132  -0.0191  0.0239  1.0000  -6.3449   0.0000   0.0000   0.0000   0.2475
  13.900   1.2612   0.06860   0.06347  -0.0195  0.0239  1.0000  -6.3315   0.0000   0.0000   0.0000   0.2477
  14.000   1.2555   0.07075   0.06572  -0.0201  0.0239  1.0000  -6.3135   0.0000   0.0000   0.0000   0.2481
  14.100   1.2493   0.07300   0.06807  -0.0208  0.0240  1.0000  -6.2913   0.0000   0.0000   0.0000   0.2486
  14.200   1.2426   0.07537   0.07054  -0.0217  0.0240  1.0000  -6.2644   0.0000   0.0000   0.0000   0.2492
  14.300   1.2355   0.07785   0.07312  -0.0227  0.0241  1.0000  -6.2327   0.0000   0.0000   0.0000   0.2499
  14.400   1.2279   0.08045   0.07582  -0.0238  0.0241  1.0000  -6.1963   0.0000   0.0000   0.0000   0.2508
  14.500   1.2200   0.08319   0.07866  -0.0251  0.0242  1.0000  -6.1552   0.0000   0.0000   0.0000   0.2518
  14.600   1.2117   0.08607   0.08164  -0.0266  0.0243  1.0000  -6.1092   0.0000   0.0000   0.0000   0.2530
  14.700   1.2029   0.08912   0.08478  -0.0282  0.0244  1.0000  -6.0578   0.0000   0.0000   0.0000   0.2543
  14.800   1.1938   0.09233   0.08809  -0.0300  0.0245  1.0000  -6.0007   0.0000   0.0000   0.0000   0.2559
  14.900   1.1843   0.09572   0.09157  -0.0320  0.0246  1.0000  -5.9377   0.0000   0.0000   0.0000   0.2576
  15.000   1.1744   0.09932   0.09526  -0.0342  0.0247  1.0000  -5.8672   0.0000   0.0000   0.0000   0.2595


