xflr5 v6.61

 Calculated polar for: SD7037-092-88

 1 1 Reynolds number fixed          Mach number fixed         

 xtrf =   1.000 (top)        1.000 (bottom)
 Mach =   0.000     Re =     0.225 e 6     Ncrit =   9.000

  alpha     CL        CD       CDp       Cm    Top Xtr Bot Xtr   Cpmin    Chinge    XCp    
 ------- -------- --------- --------- -------- ------- ------- -------- --------- ---------
 -10.000  -0.3705   0.11164   0.10814  -0.0337  1.0000  0.0336  -1.7258   0.0000   0.0000   0.0000   0.1516
  -9.900  -0.3694   0.11036   0.10687  -0.0342  1.0000  0.0336  -1.7406   0.0000   0.0000   0.0000   0.1501
  -9.800  -0.3685   0.10908   0.10560  -0.0347  1.0000  0.0337  -1.7558   0.0000   0.0000   0.0000   0.1486
  -9.700  -0.3676   0.10779   0.10432  -0.0352  1.0000  0.0337  -1.7713   0.0000   0.0000   0.0000   0.1472
  -9.600  -0.3669   0.10649   0.10304  -0.0357  1.0000  0.0337  -1.7873   0.0000   0.0000   0.0000   0.1458
  -9.500  -0.3662   0.10518   0.10175  -0.0361  1.0000  0.0337  -1.8038   0.0000   0.0000   0.0000   0.1445
  -9.400  -0.3737   0.10113   0.09775  -0.0369  1.0000  0.0342  -1.9085   0.0000   0.0000   0.0000   0.1445
  -9.300  -0.3770   0.09849   0.09512  -0.0369  1.0000  0.0348  -1.9396   0.0000   0.0000   0.0000   0.1454
  -9.200  -0.3750   0.09702   0.09366  -0.0363  1.0000  0.0352  -1.9128   0.0000   0.0000   0.0000   0.1465
  -9.100  -0.3728   0.09582   0.09247  -0.0359  1.0000  0.0355  -1.8854   0.0000   0.0000   0.0000   0.1473
  -9.000  -0.3708   0.09473   0.09139  -0.0355  1.0000  0.0359  -1.8612   0.0000   0.0000   0.0000   0.1478
  -8.900  -0.3687   0.09370   0.09037  -0.0351  1.0000  0.0362  -1.8366   0.0000   0.0000   0.0000   0.1483
  -8.800  -0.3669   0.09268   0.08936  -0.0348  1.0000  0.0366  -1.8172   0.0000   0.0000   0.0000   0.1487
  -8.700  -0.3654   0.09167   0.08837  -0.0346  1.0000  0.0369  -1.8008   0.0000   0.0000   0.0000   0.1491
  -8.600  -0.3643   0.09066   0.08737  -0.0344  1.0000  0.0373  -1.7892   0.0000   0.0000   0.0000   0.1494
  -8.500  -0.3636   0.08965   0.08638  -0.0343  1.0000  0.0377  -1.7810   0.0000   0.0000   0.0000   0.1497
  -8.400  -0.3633   0.08865   0.08539  -0.0341  1.0000  0.0381  -1.7761   0.0000   0.0000   0.0000   0.1501
  -8.300  -0.3634   0.08764   0.08441  -0.0340  1.0000  0.0384  -1.7741   0.0000   0.0000   0.0000   0.1506
  -8.200  -0.3640   0.08665   0.08344  -0.0338  1.0000  0.0388  -1.7748   0.0000   0.0000   0.0000   0.1513
  -8.100  -0.3651   0.08568   0.08246  -0.0336  1.0000  0.0392  -1.7777   0.0000   0.0000   0.0000   0.1523
  -8.000  -0.3668   0.08473   0.08153  -0.0334  1.0000  0.0396  -1.7833   0.0000   0.0000   0.0000   0.1536
  -7.900  -0.3691   0.08380   0.08063  -0.0330  1.0000  0.0399  -1.7909   0.0000   0.0000   0.0000   0.1552
  -7.800  -0.3722   0.08292   0.07977  -0.0326  1.0000  0.0402  -1.8005   0.0000   0.0000   0.0000   0.1573
  -7.700  -0.3760   0.08208   0.07897  -0.0320  1.0000  0.0405  -1.8119   0.0000   0.0000   0.0000   0.1599
  -7.600  -0.3808   0.08130   0.07822  -0.0313  1.0000  0.0408  -1.8249   0.0000   0.0000   0.0000   0.1630
  -7.500  -0.3865   0.08058   0.07753  -0.0304  1.0000  0.0410  -1.8395   0.0000   0.0000   0.0000   0.1666
  -7.400  -0.3931   0.07993   0.07691  -0.0294  1.0000  0.0411  -1.8556   0.0000   0.0000   0.0000   0.1708
  -7.300  -0.4007   0.07932   0.07633  -0.0282  1.0000  0.0412  -1.8728   0.0000   0.0000   0.0000   0.1752
  -7.200  -0.4081   0.07866   0.07570  -0.0272  1.0000  0.0413  -1.8906   0.0000   0.0000   0.0000   0.1792
  -7.100  -0.4134   0.07776   0.07482  -0.0268  1.0000  0.0415  -1.9077   0.0000   0.0000   0.0000   0.1812
  -7.000  -0.4180   0.07674   0.07383  -0.0267  1.0000  0.0418  -1.9251   0.0000   0.0000   0.0000   0.1823
  -6.900  -0.4222   0.07566   0.07277  -0.0267  1.0000  0.0420  -1.9432   0.0000   0.0000   0.0000   0.1830
  -6.800  -0.4259   0.07451   0.07164  -0.0269  1.0000  0.0423  -1.9622   0.0000   0.0000   0.0000   0.1833
  -6.700  -0.4292   0.07330   0.07044  -0.0272  1.0000  0.0426  -1.9822   0.0000   0.0000   0.0000   0.1831
  -6.600  -0.4320   0.07202   0.06916  -0.0276  1.0000  0.0430  -2.0033   0.0000   0.0000   0.0000   0.1826
  -6.500  -0.4343   0.07066   0.06781  -0.0282  1.0000  0.0434  -2.0258   0.0000   0.0000   0.0000   0.1817
  -6.400  -0.4360   0.06923   0.06638  -0.0289  1.0000  0.0439  -2.0500   0.0000   0.0000   0.0000   0.1804
  -6.300  -0.4370   0.06772   0.06486  -0.0297  1.0000  0.0445  -2.0770   0.0000   0.0000   0.0000   0.1787
  -6.200  -0.4373   0.06612   0.06325  -0.0307  1.0000  0.0451  -2.1076   0.0000   0.0000   0.0000   0.1765
  -6.100  -0.4364   0.06445   0.06154  -0.0320  1.0000  0.0460  -2.1440   0.0000   0.0000   0.0000   0.1737
  -6.000  -0.4108   0.06235   0.05921  -0.0394  0.9976  0.0491  -2.2393   0.0000   0.0000   0.0000   0.1508
  -5.900  -0.3961   0.06044   0.05714  -0.0429  0.9953  0.0494  -2.2680   0.0000   0.0000   0.0000   0.1382
  -5.800  -0.3830   0.05837   0.05494  -0.0458  0.9933  0.0496  -2.2882   0.0000   0.0000   0.0000   0.1268
  -5.700  -0.3698   0.05629   0.05272  -0.0485  0.9916  0.0497  -2.3016   0.0000   0.0000   0.0000   0.1152
  -5.600  -0.3750   0.04780   0.04416  -0.0527  0.9894  0.0522  -2.4482   0.0000   0.0000   0.0000   0.1059
  -5.500  -0.3655   0.04659   0.04300  -0.0532  0.9875  0.0530  -2.3835   0.0000   0.0000   0.0000   0.1007
  -5.400  -0.3550   0.04558   0.04200  -0.0540  0.9854  0.0540  -2.3167   0.0000   0.0000   0.0000   0.0942
  -5.300  -0.3438   0.04493   0.04136  -0.0548  0.9834  0.0556  -2.2321   0.0000   0.0000   0.0000   0.0871
  -5.200  -0.3316   0.04426   0.04069  -0.0558  0.9814  0.0581  -2.1532   0.0000   0.0000   0.0000   0.0783
  -5.100  -0.3178   0.04311   0.03947  -0.0574  0.9795  0.0613  -2.1056   0.0000   0.0000   0.0000   0.0658
  -5.000  -0.2993   0.04206   0.03819  -0.0596  0.9776  0.0664  -2.0944   0.0000   0.0000   0.0000   0.0470
  -4.800  -0.2711   0.03695   0.03256  -0.0647  0.9743  0.0725  -2.1166   0.0000   0.0000   0.0000   0.0072
  -4.700  -0.2572   0.03560   0.03124  -0.0660  0.9733  0.0738  -2.0479   0.0000   0.0000   0.0000  -0.0109
  -4.600  -0.2432   0.03452   0.03015  -0.0671  0.9722  0.0751  -1.9814   0.0000   0.0000   0.0000  -0.0305
  -4.500  -0.2360   0.03369   0.02929  -0.0668  0.9686  0.0762  -1.9367   0.0000   0.0000   0.0000  -0.0377
  -4.400  -0.2249   0.03277   0.02832  -0.0673  0.9657  0.0778  -1.8862   0.0000   0.0000   0.0000  -0.0537
  -4.300  -0.2120   0.03180   0.02727  -0.0680  0.9632  0.0796  -1.8374   0.0000   0.0000   0.0000  -0.0755
  -4.200  -0.1980   0.03075   0.02611  -0.0689  0.9611  0.0814  -1.7937   0.0000   0.0000   0.0000  -0.1032
  -4.100  -0.1831   0.02958   0.02478  -0.0699  0.9592  0.0826  -1.7576   0.0000   0.0000   0.0000  -0.1373
  -4.000  -0.1680   0.02813   0.02315  -0.0710  0.9575  0.0819  -1.7354   0.0000   0.0000   0.0000  -0.1783
  -3.900  -0.1476   0.02103   0.01464  -0.0692  0.9573  0.0318  -2.2628   0.0000   0.0000   0.0000  -0.2266
  -3.800  -0.1323   0.02000   0.01346  -0.0700  0.9560  0.0312  -2.2233   0.0000   0.0000   0.0000  -0.2872
  -3.700  -0.1165   0.01912   0.01241  -0.0708  0.9548  0.0307  -2.2071   0.0000   0.0000   0.0000  -0.3667
  -3.600  -0.1003   0.01835   0.01154  -0.0717  0.9536  0.0304  -2.1846   0.0000   0.0000   0.0000  -0.4749
  -3.500  -0.0838   0.01767   0.01076  -0.0726  0.9526  0.0303  -2.1575   0.0000   0.0000   0.0000  -0.6288
  -3.400  -0.0670   0.01707   0.01008  -0.0736  0.9517  0.0303  -2.1263   0.0000   0.0000   0.0000  -0.8624
  -3.300  -0.0500   0.01653   0.00948  -0.0746  0.9508  0.0304  -2.0914   0.0000   0.0000   0.0000  -1.2605
  -3.200  -0.0393   0.01613   0.00904  -0.0744  0.9479  0.0307  -2.0631   0.0000   0.0000   0.0000  -1.6660
  -3.100  -0.0306   0.01577   0.00865  -0.0738  0.9438  0.0311  -2.0365   0.0000   0.0000   0.0000  -2.1924
  -3.000  -0.0177   0.01540   0.00824  -0.0740  0.9409  0.0317  -2.0026   0.0000   0.0000   0.0000  -3.9864
  -2.900  -0.0033   0.01505   0.00787  -0.0745  0.9386  0.0325  -1.9652   0.0000   0.0000   0.0000  -22.2814
  -2.800   0.0120   0.01476   0.00754  -0.0753  0.9366  0.0335  -1.9229   0.0000   0.0000   0.0000   6.5748
  -2.700   0.0275   0.01414   0.00688  -0.0761  0.9349  0.0362  -1.9156   0.0000   0.0000   0.0000   3.0480
  -2.600   0.0441   0.01374   0.00647  -0.0771  0.9334  0.0412  -1.8828   0.0000   0.0000   0.0000   2.0135
  -2.500   0.0615   0.01346   0.00617  -0.0782  0.9320  0.0489  -1.8429   0.0000   0.0000   0.0000   1.5319
  -2.400   0.0769   0.01251   0.00572  -0.0793  0.9307  0.1503  -1.8576   0.0000   0.0000   0.0000   1.2899
  -2.300   0.0928   0.01209   0.00559  -0.0804  0.9294  0.2244  -1.7825   0.0000   0.0000   0.0000   1.1229
  -2.200   0.1089   0.01174   0.00548  -0.0815  0.9282  0.2910  -1.6959   0.0000   0.0000   0.0000   1.0042
  -2.100   0.1245   0.01137   0.00540  -0.0825  0.9269  0.3671  -1.6070   0.0000   0.0000   0.0000   0.9174
  -2.000   0.1295   0.01117   0.00538  -0.0813  0.9212  0.4173  -1.5531   0.0000   0.0000   0.0000   0.8820
  -1.900   0.1392   0.01092   0.00533  -0.0810  0.9171  0.4777  -1.4824   0.0000   0.0000   0.0000   0.8352
  -1.800   0.1504   0.01060   0.00529  -0.0809  0.9140  0.5546  -1.4063   0.0000   0.0000   0.0000   0.7909
  -1.700   0.1612   0.01026   0.00528  -0.0806  0.9112  0.6413  -1.3309   0.0000   0.0000   0.0000   0.7523
  -1.600   0.1718   0.00997   0.00526  -0.0800  0.9088  0.7173  -1.2562   0.0000   0.0000   0.0000   0.7176
  -1.500   0.1827   0.00975   0.00521  -0.0794  0.9066  0.7756  -1.1809   0.0000   0.0000   0.0000   0.6861
  -1.400   0.1943   0.00959   0.00514  -0.0789  0.9046  0.8190  -1.1043   0.0000   0.0000   0.0000   0.6574
  -1.300   0.2065   0.00945   0.00507  -0.0785  0.9028  0.8576  -1.0260   0.0000   0.0000   0.0000   0.6313
  -1.200   0.2145   0.00939   0.00503  -0.0774  0.8979  0.8935  -0.9577   0.0000   0.0000   0.0000   0.6117
  -1.100   0.2321   0.00929   0.00494  -0.0783  0.8948  0.9326  -0.8653   0.0000   0.0000   0.0000   0.5878
  -1.000   0.2571   0.00917   0.00480  -0.0808  0.8929  0.9631  -0.7524   0.0000   0.0000   0.0000   0.5647
  -0.900   0.2816   0.00906   0.00464  -0.0834  0.8909  0.9833  -0.6441   0.0000   0.0000   0.0000   0.5463
  -0.800   0.3062   0.00894   0.00447  -0.0860  0.8888  0.9991  -0.5389   0.0000   0.0000   0.0000   0.5310
  -0.700   0.3182   0.00886   0.00434  -0.0860  0.8849  1.0000  -0.5377   0.0000   0.0000   0.0000   0.5204
  -0.600   0.3296   0.00878   0.00420  -0.0859  0.8814  1.0000  -0.5481   0.0000   0.0000   0.0000   0.5104
  -0.500   0.3413   0.00870   0.00407  -0.0858  0.8783  1.0000  -0.5595   0.0000   0.0000   0.0000   0.5011
  -0.400   0.3474   0.00871   0.00405  -0.0848  0.8712  1.0000  -0.5673   0.0000   0.0000   0.0000   0.4937
  -0.300   0.3565   0.00867   0.00397  -0.0843  0.8656  1.0000  -0.5772   0.0000   0.0000   0.0000   0.4858
  -0.200   0.3669   0.00861   0.00386  -0.0839  0.8609  1.0000  -0.5880   0.0000   0.0000   0.0000   0.4781
  -0.100   0.3780   0.00855   0.00374  -0.0837  0.8569  1.0000  -0.5992   0.0000   0.0000   0.0000   0.4706
   0.000   0.3883   0.00851   0.00366  -0.0834  0.8522  1.0000  -0.6104   0.0000   0.0000   0.0000   0.4638
   0.100   0.3968   0.00851   0.00364  -0.0828  0.8452  1.0000  -0.6208   0.0000   0.0000   0.0000   0.4576
   0.200   0.4067   0.00848   0.00356  -0.0824  0.8394  1.0000  -0.6324   0.0000   0.0000   0.0000   0.4514
   0.300   0.4175   0.00843   0.00346  -0.0821  0.8344  1.0000  -0.6447   0.0000   0.0000   0.0000   0.4454
   0.400   0.4287   0.00839   0.00337  -0.0819  0.8298  1.0000  -0.6572   0.0000   0.0000   0.0000   0.4397
   0.500   0.4375   0.00841   0.00336  -0.0814  0.8222  1.0000  -0.6680   0.0000   0.0000   0.0000   0.4345
   0.600   0.4476   0.00839   0.00331  -0.0810  0.8156  1.0000  -0.6804   0.0000   0.0000   0.0000   0.4295
   0.700   0.4585   0.00836   0.00323  -0.0807  0.8100  1.0000  -0.6941   0.0000   0.0000   0.0000   0.4245
   0.800   0.4690   0.00835   0.00317  -0.0804  0.8039  1.0000  -0.7076   0.0000   0.0000   0.0000   0.4199
   0.900   0.4787   0.00836   0.00316  -0.0801  0.7960  1.0000  -0.7203   0.0000   0.0000   0.0000   0.4155
   1.000   0.4892   0.00836   0.00311  -0.0798  0.7891  1.0000  -0.7339   0.0000   0.0000   0.0000   0.4112
   1.100   0.5002   0.00835   0.00304  -0.0795  0.7833  1.0000  -0.7479   0.0000   0.0000   0.0000   0.4071
   1.200   0.5100   0.00838   0.00306  -0.0792  0.7749  1.0000  -0.7609   0.0000   0.0000   0.0000   0.4033
   1.300   0.5203   0.00839   0.00303  -0.0789  0.7671  1.0000  -0.7759   0.0000   0.0000   0.0000   0.3996
   1.400   0.5311   0.00841   0.00297  -0.0786  0.7603  1.0000  -0.7914   0.0000   0.0000   0.0000   0.3959
   1.500   0.5412   0.00844   0.00298  -0.0784  0.7521  1.0000  -0.8063   0.0000   0.0000   0.0000   0.3925
   1.600   0.5514   0.00848   0.00297  -0.0781  0.7438  1.0000  -0.8214   0.0000   0.0000   0.0000   0.3892
   1.700   0.5621   0.00851   0.00294  -0.0778  0.7365  1.0000  -0.8369   0.0000   0.0000   0.0000   0.3860
   1.800   0.5722   0.00856   0.00296  -0.0775  0.7281  1.0000  -0.8520   0.0000   0.0000   0.0000   0.3830
   1.900   0.5825   0.00860   0.00296  -0.0773  0.7194  1.0000  -0.8673   0.0000   0.0000   0.0000   0.3801
   2.000   0.5930   0.00866   0.00294  -0.0770  0.7118  1.0000  -0.8837   0.0000   0.0000   0.0000   0.3772
   2.100   0.6031   0.00871   0.00297  -0.0767  0.7031  1.0000  -0.9009   0.0000   0.0000   0.0000   0.3745
   2.200   0.6133   0.00877   0.00299  -0.0765  0.6943  1.0000  -0.9183   0.0000   0.0000   0.0000   0.3718
   2.300   0.6238   0.00884   0.00298  -0.0762  0.6866  1.0000  -0.9360   0.0000   0.0000   0.0000   0.3693
   2.400   0.6338   0.00889   0.00303  -0.0759  0.6774  1.0000  -0.9533   0.0000   0.0000   0.0000   0.3668
   2.500   0.6440   0.00896   0.00305  -0.0757  0.6686  1.0000  -0.9708   0.0000   0.0000   0.0000   0.3644
   2.600   0.6543   0.00905   0.00310  -0.0754  0.6605  1.0000  -0.9885   0.0000   0.0000   0.0000   0.3621
   2.700   0.6644   0.00911   0.00314  -0.0752  0.6513  1.0000  -1.0061   0.0000   0.0000   0.0000   0.3599
   2.800   0.6746   0.00919   0.00316  -0.0749  0.6425  1.0000  -1.0255   0.0000   0.0000   0.0000   0.3577
   2.900   0.6848   0.00927   0.00320  -0.0747  0.6339  1.0000  -1.0459   0.0000   0.0000   0.0000   0.3556
   3.000   0.6949   0.00934   0.00325  -0.0744  0.6247  1.0000  -1.0662   0.0000   0.0000   0.0000   0.3536
   3.100   0.7049   0.00944   0.00328  -0.0741  0.6162  1.0000  -1.0866   0.0000   0.0000   0.0000   0.3516
   3.200   0.7151   0.00952   0.00334  -0.0739  0.6073  1.0000  -1.1071   0.0000   0.0000   0.0000   0.3497
   3.300   0.7251   0.00960   0.00339  -0.0736  0.5980  1.0000  -1.1276   0.0000   0.0000   0.0000   0.3478
   3.400   0.7351   0.00972   0.00343  -0.0733  0.5895  1.0000  -1.1482   0.0000   0.0000   0.0000   0.3459
   3.500   0.7452   0.00979   0.00350  -0.0731  0.5799  1.0000  -1.1689   0.0000   0.0000   0.0000   0.3442
   3.600   0.7551   0.00989   0.00355  -0.0728  0.5707  1.0000  -1.1908   0.0000   0.0000   0.0000   0.3424
   3.700   0.7651   0.00999   0.00361  -0.0726  0.5622  1.0000  -1.2149   0.0000   0.0000   0.0000   0.3408
   3.800   0.7751   0.01007   0.00368  -0.0724  0.5529  1.0000  -1.2391   0.0000   0.0000   0.0000   0.3391
   3.900   0.7849   0.01020   0.00374  -0.0721  0.5440  1.0000  -1.2632   0.0000   0.0000   0.0000   0.3375
   4.000   0.7949   0.01029   0.00382  -0.0718  0.5348  1.0000  -1.2876   0.0000   0.0000   0.0000   0.3360
   4.100   0.8048   0.01039   0.00393  -0.0715  0.5250  1.0000  -1.3119   0.0000   0.0000   0.0000   0.3344
   4.200   0.8144   0.01053   0.00400  -0.0712  0.5161  1.0000  -1.3362   0.0000   0.0000   0.0000   0.3329
   4.300   0.8244   0.01061   0.00409  -0.0710  0.5062  1.0000  -1.3609   0.0000   0.0000   0.0000   0.3315
   4.400   0.8340   0.01074   0.00416  -0.0707  0.4970  1.0000  -1.3853   0.0000   0.0000   0.0000   0.3300
   4.500   0.8439   0.01085   0.00426  -0.0705  0.4881  1.0000  -1.4155   0.0000   0.0000   0.0000   0.3286
   4.600   0.8537   0.01096   0.00435  -0.0702  0.4786  1.0000  -1.4498   0.0000   0.0000   0.0000   0.3273
   4.800   0.8730   0.01121   0.00453  -0.0696  0.4598  1.0000  -1.5185   0.0000   0.0000   0.0000   0.3246
   4.900   0.8824   0.01135   0.00463  -0.0693  0.4500  1.0000  -1.5528   0.0000   0.0000   0.0000   0.3233
   5.000   0.8920   0.01149   0.00473  -0.0690  0.4406  1.0000  -1.5875   0.0000   0.0000   0.0000   0.3220
   5.100   0.9016   0.01161   0.00483  -0.0688  0.4305  1.0000  -1.6225   0.0000   0.0000   0.0000   0.3208
   5.300   0.9207   0.01189   0.00506  -0.0682  0.4121  1.0000  -1.6927   0.0000   0.0000   0.0000   0.3184
   5.400   0.9300   0.01204   0.00517  -0.0679  0.4027  1.0000  -1.7277   0.0000   0.0000   0.0000   0.3172
   5.500   0.9393   0.01220   0.00530  -0.0676  0.3936  1.0000  -1.7675   0.0000   0.0000   0.0000   0.3160
   5.600   0.9488   0.01232   0.00546  -0.0673  0.3835  1.0000  -1.8185   0.0000   0.0000   0.0000   0.3149
   5.800   0.9673   0.01264   0.00572  -0.0667  0.3642  1.0000  -1.9701   0.0000   0.0000   0.0000   0.3127
   5.900   0.9763   0.01282   0.00586  -0.0663  0.3545  1.0000  -2.0471   0.0000   0.0000   0.0000   0.3116
   6.000   0.9854   0.01299   0.00600  -0.0660  0.3457  1.0000  -2.1254   0.0000   0.0000   0.0000   0.3105
   6.100   0.9949   0.01314   0.00615  -0.0657  0.3365  1.0000  -2.2058   0.0000   0.0000   0.0000   0.3095
   6.200   1.0035   0.01335   0.00630  -0.0653  0.3277  1.0000  -2.2841   0.0000   0.0000   0.0000   0.3084
   6.300   1.0129   0.01350   0.00646  -0.0651  0.3190  1.0000  -2.3663   0.0000   0.0000   0.0000   0.3074
   6.400   1.0219   0.01367   0.00662  -0.0647  0.3095  1.0000  -2.4477   0.0000   0.0000   0.0000   0.3064
   6.500   1.0303   0.01391   0.00679  -0.0643  0.3005  1.0000  -2.5276   0.0000   0.0000   0.0000   0.3054
   6.600   1.0397   0.01404   0.00694  -0.0640  0.2909  1.0000  -2.6124   0.0000   0.0000   0.0000   0.3044
   6.700   1.0480   0.01427   0.00711  -0.0636  0.2814  1.0000  -2.6935   0.0000   0.0000   0.0000   0.3034
   6.800   1.0570   0.01445   0.00729  -0.0633  0.2725  1.0000  -2.7783   0.0000   0.0000   0.0000   0.3025
   6.900   1.0659   0.01463   0.00746  -0.0629  0.2634  1.0000  -2.8632   0.0000   0.0000   0.0000   0.3015
   7.000   1.0736   0.01492   0.00770  -0.0625  0.2549  1.0000  -2.9462   0.0000   0.0000   0.0000   0.3005
   7.100   1.0832   0.01505   0.00788  -0.0622  0.2466  1.0000  -3.0368   0.0000   0.0000   0.0000   0.2997
   7.200   1.0916   0.01526   0.00806  -0.0618  0.2378  1.0000  -3.1225   0.0000   0.0000   0.0000   0.2988
   7.300   1.0996   0.01552   0.00827  -0.0614  0.2297  1.0000  -3.2066   0.0000   0.0000   0.0000   0.2978
   7.400   1.1087   0.01568   0.00846  -0.0611  0.2212  1.0000  -3.2965   0.0000   0.0000   0.0000   0.2970
   7.500   1.1165   0.01593   0.00866  -0.0606  0.2125  1.0000  -3.3815   0.0000   0.0000   0.0000   0.2960
   7.600   1.1249   0.01615   0.00887  -0.0602  0.2043  1.0000  -3.4693   0.0000   0.0000   0.0000   0.2952
   7.700   1.1335   0.01634   0.00906  -0.0599  0.1957  1.0000  -3.5590   0.0000   0.0000   0.0000   0.2943
   7.800   1.1407   0.01665   0.00929  -0.0594  0.1873  1.0000  -3.6428   0.0000   0.0000   0.0000   0.2934
   7.900   1.1496   0.01682   0.00950  -0.0590  0.1801  1.0000  -3.7344   0.0000   0.0000   0.0000   0.2926
   8.000   1.1579   0.01704   0.00971  -0.0586  0.1728  1.0000  -3.8242   0.0000   0.0000   0.0000   0.2918
   8.100   1.1651   0.01735   0.00996  -0.0581  0.1657  1.0000  -3.9088   0.0000   0.0000   0.0000   0.2909
   8.200   1.1735   0.01757   0.01021  -0.0577  0.1594  1.0000  -3.9989   0.0000   0.0000   0.0000   0.2900
   8.300   1.1819   0.01777   0.01043  -0.0574  0.1526  1.0000  -4.0904   0.0000   0.0000   0.0000   0.2892
   8.400   1.1891   0.01806   0.01068  -0.0568  0.1456  1.0000  -4.1764   0.0000   0.0000   0.0000   0.2884
   8.500   1.1964   0.01835   0.01095  -0.0563  0.1390  1.0000  -4.2625   0.0000   0.0000   0.0000   0.2875
   8.600   1.2051   0.01854   0.01117  -0.0560  0.1323  1.0000  -4.3560   0.0000   0.0000   0.0000   0.2868
   8.700   1.2122   0.01882   0.01146  -0.0555  0.1255  1.0000  -4.4419   0.0000   0.0000   0.0000   0.2859
   8.800   1.2183   0.01919   0.01179  -0.0548  0.1189  1.0000  -4.5220   0.0000   0.0000   0.0000   0.2850
   8.900   1.2271   0.01936   0.01201  -0.0545  0.1130  1.0000  -4.6165   0.0000   0.0000   0.0000   0.2843
   9.000   1.2343   0.01964   0.01226  -0.0540  0.1058  1.0000  -4.7036   0.0000   0.0000   0.0000   0.2835
   9.100   1.2396   0.02006   0.01261  -0.0532  0.0985  1.0000  -4.7795   0.0000   0.0000   0.0000   0.2826
   9.200   1.2482   0.02023   0.01284  -0.0529  0.0928  1.0000  -4.8719   0.0000   0.0000   0.0000   0.2819
   9.300   1.2548   0.02054   0.01313  -0.0523  0.0856  1.0000  -4.9542   0.0000   0.0000   0.0000   0.2811
   9.400   1.2599   0.02098   0.01350  -0.0516  0.0783  1.0000  -5.0255   0.0000   0.0000   0.0000   0.2801
   9.500   1.2673   0.02123   0.01379  -0.0511  0.0716  1.0000  -5.1060   0.0000   0.0000   0.0000   0.2794
   9.600   1.2715   0.02173   0.01421  -0.0502  0.0627  1.0000  -5.1666   0.0000   0.0000   0.0000   0.2784
   9.700   1.2763   0.02220   0.01466  -0.0493  0.0532  1.0000  -5.2182   0.0000   0.0000   0.0000   0.2775
   9.800   1.2766   0.02299   0.01534  -0.0479  0.0431  1.0000  -5.2346   0.0000   0.0000   0.0000   0.2762
   9.900   1.2785   0.02358   0.01593  -0.0466  0.0370  1.0000  -5.2559   0.0000   0.0000   0.0000   0.2750
  10.000   1.2774   0.02435   0.01665  -0.0449  0.0328  1.0000  -5.2638   0.0000   0.0000   0.0000   0.2735
  10.100   1.2748   0.02517   0.01751  -0.0429  0.0303  1.0000  -5.2566   0.0000   0.0000   0.0000   0.2719
  10.200   1.2784   0.02561   0.01801  -0.0418  0.0290  1.0000  -5.2964   0.0000   0.0000   0.0000   0.2709
  10.300   1.2811   0.02611   0.01856  -0.0407  0.0279  1.0000  -5.3484   0.0000   0.0000   0.0000   0.2698
  10.400   1.2834   0.02663   0.01913  -0.0396  0.0268  1.0000  -5.4059   0.0000   0.0000   0.0000   0.2687
  10.500   1.2855   0.02717   0.01971  -0.0385  0.0259  1.0000  -5.4636   0.0000   0.0000   0.0000   0.2676
  10.600   1.2875   0.02772   0.02031  -0.0374  0.0251  1.0000  -5.5222   0.0000   0.0000   0.0000   0.2666
  10.700   1.2893   0.02830   0.02093  -0.0363  0.0245  1.0000  -5.5800   0.0000   0.0000   0.0000   0.2656
  10.800   1.2906   0.02891   0.02158  -0.0352  0.0238  1.0000  -5.6351   0.0000   0.0000   0.0000   0.2645
  10.900   1.2913   0.02959   0.02229  -0.0341  0.0233  1.0000  -5.6857   0.0000   0.0000   0.0000   0.2635
  11.000   1.2913   0.03032   0.02307  -0.0330  0.0228  1.0000  -5.7307   0.0000   0.0000   0.0000   0.2625
  11.100   1.2909   0.03112   0.02391  -0.0319  0.0224  1.0000  -5.7708   0.0000   0.0000   0.0000   0.2615
  11.200   1.2901   0.03199   0.02482  -0.0308  0.0220  1.0000  -5.8059   0.0000   0.0000   0.0000   0.2605
  11.300   1.2889   0.03293   0.02581  -0.0297  0.0216  1.0000  -5.8365   0.0000   0.0000   0.0000   0.2595
  11.400   1.2876   0.03395   0.02689  -0.0286  0.0213  1.0000  -5.8631   0.0000   0.0000   0.0000   0.2586
  11.500   1.2862   0.03504   0.02804  -0.0276  0.0210  1.0000  -5.8863   0.0000   0.0000   0.0000   0.2577
  11.600   1.2850   0.03622   0.02932  -0.0267  0.0207  1.0000  -5.9052   0.0000   0.0000   0.0000   0.2568
  11.700   1.2843   0.03744   0.03060  -0.0258  0.0205  1.0000  -5.9259   0.0000   0.0000   0.0000   0.2560
  11.800   1.2864   0.03824   0.03147  -0.0252  0.0204  1.0000  -5.9799   0.0000   0.0000   0.0000   0.2553
  11.900   1.2883   0.03908   0.03237  -0.0246  0.0203  1.0000  -6.0320   0.0000   0.0000   0.0000   0.2546
  12.000   1.2901   0.03996   0.03331  -0.0240  0.0202  1.0000  -6.0825   0.0000   0.0000   0.0000   0.2540
  12.100   1.2917   0.04087   0.03430  -0.0234  0.0201  1.0000  -6.1309   0.0000   0.0000   0.0000   0.2534
  12.200   1.2932   0.04182   0.03532  -0.0229  0.0200  1.0000  -6.1778   0.0000   0.0000   0.0000   0.2528
  12.300   1.2945   0.04280   0.03638  -0.0223  0.0199  1.0000  -6.2232   0.0000   0.0000   0.0000   0.2522
  12.400   1.2956   0.04383   0.03748  -0.0218  0.0199  1.0000  -6.2663   0.0000   0.0000   0.0000   0.2516
  12.500   1.2965   0.04490   0.03863  -0.0214  0.0198  1.0000  -6.3070   0.0000   0.0000   0.0000   0.2511
  12.600   1.2970   0.04601   0.03982  -0.0209  0.0197  1.0000  -6.3451   0.0000   0.0000   0.0000   0.2506
  12.700   1.2972   0.04717   0.04106  -0.0205  0.0197  1.0000  -6.3802   0.0000   0.0000   0.0000   0.2501
  12.800   1.2971   0.04838   0.04236  -0.0202  0.0196  1.0000  -6.4125   0.0000   0.0000   0.0000   0.2496
  12.900   1.2966   0.04963   0.04370  -0.0198  0.0196  1.0000  -6.4422   0.0000   0.0000   0.0000   0.2492
  13.000   1.2958   0.05095   0.04510  -0.0196  0.0196  1.0000  -6.4684   0.0000   0.0000   0.0000   0.2488
  13.100   1.2946   0.05232   0.04656  -0.0193  0.0195  1.0000  -6.4917   0.0000   0.0000   0.0000   0.2485
  13.200   1.2930   0.05375   0.04808  -0.0191  0.0195  1.0000  -6.5117   0.0000   0.0000   0.0000   0.2482
  13.300   1.2910   0.05523   0.04966  -0.0190  0.0195  1.0000  -6.5288   0.0000   0.0000   0.0000   0.2480
  13.400   1.2887   0.05676   0.05128  -0.0190  0.0195  1.0000  -6.5438   0.0000   0.0000   0.0000   0.2478
  13.500   1.2860   0.05834   0.05295  -0.0190  0.0195  1.0000  -6.5563   0.0000   0.0000   0.0000   0.2477
  13.600   1.2829   0.05997   0.05467  -0.0191  0.0194  1.0000  -6.5664   0.0000   0.0000   0.0000   0.2476
  13.700   1.2796   0.06166   0.05645  -0.0193  0.0194  1.0000  -6.5740   0.0000   0.0000   0.0000   0.2476
  13.800   1.2759   0.06341   0.05829  -0.0196  0.0194  1.0000  -6.5794   0.0000   0.0000   0.0000   0.2477
  13.900   1.2720   0.06523   0.06019  -0.0200  0.0194  1.0000  -6.5823   0.0000   0.0000   0.0000   0.2479
  14.000   1.2678   0.06713   0.06218  -0.0204  0.0193  1.0000  -6.5822   0.0000   0.0000   0.0000   0.2481
  14.100   1.2633   0.06909   0.06422  -0.0210  0.0193  1.0000  -6.5797   0.0000   0.0000   0.0000   0.2484
  14.200   1.2585   0.07113   0.06636  -0.0216  0.0193  1.0000  -6.5736   0.0000   0.0000   0.0000   0.2488
  14.300   1.2534   0.07326   0.06857  -0.0224  0.0193  1.0000  -6.5647   0.0000   0.0000   0.0000   0.2493
  14.400   1.2481   0.07546   0.07086  -0.0233  0.0193  1.0000  -6.5522   0.0000   0.0000   0.0000   0.2499
  14.500   1.2423   0.07777   0.07325  -0.0242  0.0192  1.0000  -6.5355   0.0000   0.0000   0.0000   0.2506
  14.600   1.2363   0.08018   0.07574  -0.0253  0.0192  1.0000  -6.5156   0.0000   0.0000   0.0000   0.2514
  14.700   1.2300   0.08269   0.07833  -0.0265  0.0192  1.0000  -6.4917   0.0000   0.0000   0.0000   0.2523
  14.800   1.2234   0.08533   0.08106  -0.0278  0.0192  1.0000  -6.4631   0.0000   0.0000   0.0000   0.2533
  14.900   1.2166   0.08808   0.08389  -0.0293  0.0193  1.0000  -6.4306   0.0000   0.0000   0.0000   0.2544
  15.000   1.2095   0.09096   0.08685  -0.0308  0.0193  1.0000  -6.3931   0.0000   0.0000   0.0000   0.2557
  15.100   1.2019   0.09399   0.08996  -0.0325  0.0193  1.0000  -6.3496   0.0000   0.0000   0.0000   0.2571
  15.200   1.1941   0.09715   0.09320  -0.0343  0.0194  1.0000  -6.3008   0.0000   0.0000   0.0000   0.2586
  15.300   1.1860   0.10047   0.09659  -0.0363  0.0194  1.0000  -6.2458   0.0000   0.0000   0.0000   0.2603
  15.400   1.1773   0.10397   0.10017  -0.0384  0.0195  1.0000  -6.1828   0.0000   0.0000   0.0000   0.2622
  15.500   1.1681   0.10765   0.10393  -0.0407  0.0196  1.0000  -6.1115   0.0000   0.0000   0.0000   0.2643
  15.600   1.1585   0.11152   0.10788  -0.0431  0.0197  1.0000  -6.0315   0.0000   0.0000   0.0000   0.2665
  15.700   1.1483   0.11564   0.11207  -0.0457  0.0198  1.0000  -5.9407   0.0000   0.0000   0.0000   0.2690
  15.800   1.1373   0.12007   0.11657  -0.0485  0.0199  1.0000  -5.8355   0.0000   0.0000   0.0000   0.2718
  15.900   1.1254   0.12485   0.12143  -0.0516  0.0201  1.0000  -5.7131   0.0000   0.0000   0.0000   0.2748
  16.000   1.1122   0.13009   0.12674  -0.0549  0.0202  1.0000  -5.5672   0.0000   0.0000   0.0000   0.2783
  16.100   1.0968   0.13606   0.13276  -0.0586  0.0204  1.0000  -5.3822   0.0000   0.0000   0.0000   0.2824
  16.400   0.7167   0.14337   0.14103  -0.0819  0.0285  1.0000  -2.0258   0.0000   0.0000   0.0000   0.3500
  16.500   0.7176   0.14629   0.14394  -0.0831  0.0288  1.0000  -1.9831   0.0000   0.0000   0.0000   0.3514
  16.600   0.7187   0.14908   0.14673  -0.0842  0.0291  1.0000  -1.9480   0.0000   0.0000   0.0000   0.3527
  16.700   0.7202   0.15181   0.14946  -0.0852  0.0296  1.0000  -1.9194   0.0000   0.0000   0.0000   0.3538
  16.800   0.7243   0.15428   0.15195  -0.0855  0.0308  1.0000  -1.9298   0.0000   0.0000   0.0000   0.3533
  16.900   0.7282   0.15534   0.15302  -0.0861  0.0313  1.0000  -1.9468   0.0000   0.0000   0.0000   0.3533
  18.000   0.9887   0.23200   0.22883  -0.1047  0.0437  1.0000  -2.3165   0.0000   0.0000   0.0000   0.3361
  18.100   0.9903   0.23340   0.23022  -0.1061  0.0433  1.0000  -2.2919   0.0000   0.0000   0.0000   0.3372
  18.200   0.9882   0.23480   0.23160  -0.1087  0.0421  1.0000  -2.2087   0.0000   0.0000   0.0000   0.3401
  18.300   0.9878   0.23668   0.23347  -0.1108  0.0406  1.0000  -2.1498   0.0000   0.0000   0.0000   0.3421
  18.400   0.9894   0.23846   0.23524  -0.1120  0.0393  1.0000  -2.1291   0.0000   0.0000   0.0000   0.3431
  18.500   0.9916   0.24014   0.23692  -0.1131  0.0384  1.0000  -2.1195   0.0000   0.0000   0.0000   0.3437
  18.600   0.9939   0.24180   0.23858  -0.1140  0.0377  1.0000  -2.1127   0.0000   0.0000   0.0000   0.3442
  18.700   0.9964   0.24341   0.24020  -0.1149  0.0371  1.0000  -2.1085   0.0000   0.0000   0.0000   0.3447
  18.800   0.9990   0.24499   0.24177  -0.1158  0.0365  1.0000  -2.1066   0.0000   0.0000   0.0000   0.3451
  18.900   1.0017   0.24652   0.24331  -0.1166  0.0360  1.0000  -2.1068   0.0000   0.0000   0.0000   0.3454
  19.000   1.0045   0.24801   0.24480  -0.1174  0.0355  1.0000  -2.1093   0.0000   0.0000   0.0000   0.3457
  19.100   1.0074   0.24946   0.24626  -0.1181  0.0350  1.0000  -2.1143   0.0000   0.0000   0.0000   0.3460
  19.200   1.0104   0.25087   0.24767  -0.1189  0.0345  1.0000  -2.1219   0.0000   0.0000   0.0000   0.3461
  19.300   1.0135   0.25225   0.24905  -0.1195  0.0341  1.0000  -2.1325   0.0000   0.0000   0.0000   0.3462
  19.400   1.0168   0.25358   0.25039  -0.1201  0.0337  1.0000  -2.1467   0.0000   0.0000   0.0000   0.3463
  19.500   1.0203   0.25488   0.25170  -0.1207  0.0333  1.0000  -2.1650   0.0000   0.0000   0.0000   0.3462
  19.600   1.0240   0.25616   0.25298  -0.1211  0.0329  1.0000  -2.1881   0.0000   0.0000   0.0000   0.3460
  19.700   1.0280   0.25744   0.25428  -0.1215  0.0326  1.0000  -2.2169   0.0000   0.0000   0.0000   0.3457
  19.800   1.0324   0.25875   0.25560  -0.1217  0.0323  1.0000  -2.2527   0.0000   0.0000   0.0000   0.3451
  19.900   1.0373   0.26019   0.25705  -0.1218  0.0319  1.0000  -2.3105   0.0000   0.0000   0.0000   0.3444
  20.000   1.0418   0.26193   0.25881  -0.1219  0.0315  1.0000  -2.3658   0.0000   0.0000   0.0000   0.3437


