xflr5 v6.61

 Calculated polar for: SD7037-092-88

 1 1 Reynolds number fixed          Mach number fixed         

 xtrf =   1.000 (top)        1.000 (bottom)
 Mach =   0.000     Re =     0.350 e 6     Ncrit =   9.000

  alpha     CL        CD       CDp       Cm    Top Xtr Bot Xtr   Cpmin    Chinge    XCp    
 ------- -------- --------- --------- -------- ------- ------- -------- --------- ---------
 -10.000  -0.3692   0.10709   0.10425  -0.0325  1.0000  0.0229  -1.8085   0.0000   0.0000   0.0000   0.1544
  -9.900  -0.3681   0.10580   0.10297  -0.0330  1.0000  0.0229  -1.8250   0.0000   0.0000   0.0000   0.1529
  -9.800  -0.3670   0.10449   0.10168  -0.0335  1.0000  0.0230  -1.8418   0.0000   0.0000   0.0000   0.1514
  -9.700  -0.3661   0.10318   0.10037  -0.0339  1.0000  0.0230  -1.8590   0.0000   0.0000   0.0000   0.1499
  -9.600  -0.3652   0.10186   0.09906  -0.0344  1.0000  0.0230  -1.8767   0.0000   0.0000   0.0000   0.1485
  -9.500  -0.3645   0.10053   0.09775  -0.0349  1.0000  0.0230  -1.8949   0.0000   0.0000   0.0000   0.1472
  -9.400  -0.3639   0.09920   0.09643  -0.0353  1.0000  0.0231  -1.9137   0.0000   0.0000   0.0000   0.1459
  -9.300  -0.3634   0.09785   0.09510  -0.0357  1.0000  0.0231  -1.9330   0.0000   0.0000   0.0000   0.1446
  -9.200  -0.3630   0.09651   0.09376  -0.0362  1.0000  0.0231  -1.9530   0.0000   0.0000   0.0000   0.1434
  -9.100  -0.3628   0.09516   0.09243  -0.0366  1.0000  0.0231  -1.9736   0.0000   0.0000   0.0000   0.1423
  -9.000  -0.3627   0.09382   0.09110  -0.0370  1.0000  0.0231  -1.9949   0.0000   0.0000   0.0000   0.1413
  -8.800  -0.3762   0.08823   0.08558  -0.0379  1.0000  0.0237  -2.1710   0.0000   0.0000   0.0000   0.1427
  -8.700  -0.3784   0.08676   0.08412  -0.0378  1.0000  0.0240  -2.1813   0.0000   0.0000   0.0000   0.1436
  -8.600  -0.3781   0.08577   0.08315  -0.0374  1.0000  0.0242  -2.1572   0.0000   0.0000   0.0000   0.1448
  -8.500  -0.3782   0.08484   0.08223  -0.0370  1.0000  0.0243  -2.1374   0.0000   0.0000   0.0000   0.1460
  -8.400  -0.3787   0.08394   0.08135  -0.0366  1.0000  0.0245  -2.1220   0.0000   0.0000   0.0000   0.1474
  -8.300  -0.3799   0.08306   0.08049  -0.0362  1.0000  0.0247  -2.1109   0.0000   0.0000   0.0000   0.1489
  -8.200  -0.3817   0.08221   0.07966  -0.0357  1.0000  0.0248  -2.1043   0.0000   0.0000   0.0000   0.1508
  -8.100  -0.3841   0.08141   0.07888  -0.0350  1.0000  0.0249  -2.0995   0.0000   0.0000   0.0000   0.1532
  -8.000  -0.3873   0.08065   0.07814  -0.0343  1.0000  0.0251  -2.0982   0.0000   0.0000   0.0000   0.1560
  -7.900  -0.3915   0.07992   0.07744  -0.0335  1.0000  0.0252  -2.1021   0.0000   0.0000   0.0000   0.1593
  -7.800  -0.3969   0.07924   0.07678  -0.0325  1.0000  0.0253  -2.1108   0.0000   0.0000   0.0000   0.1631
  -7.700  -0.4035   0.07860   0.07617  -0.0313  1.0000  0.0253  -2.1247   0.0000   0.0000   0.0000   0.1674
  -7.600  -0.4114   0.07801   0.07560  -0.0301  1.0000  0.0253  -2.1439   0.0000   0.0000   0.0000   0.1721
  -7.500  -0.4205   0.07744   0.07506  -0.0287  1.0000  0.0253  -2.1681   0.0000   0.0000   0.0000   0.1771
  -7.400  -0.4284   0.07674   0.07439  -0.0277  1.0000  0.0253  -2.1900   0.0000   0.0000   0.0000   0.1809
  -7.300  -0.4334   0.07581   0.07348  -0.0274  1.0000  0.0254  -2.2030   0.0000   0.0000   0.0000   0.1825
  -7.200  -0.4377   0.07480   0.07249  -0.0272  1.0000  0.0255  -2.2156   0.0000   0.0000   0.0000   0.1837
  -7.100  -0.4417   0.07374   0.07144  -0.0272  1.0000  0.0256  -2.2283   0.0000   0.0000   0.0000   0.1844
  -7.000  -0.4375   0.07209   0.06979  -0.0291  0.9992  0.0259  -2.2225   0.0000   0.0000   0.0000   0.1795
  -6.900  -0.4277   0.06993   0.06761  -0.0327  0.9975  0.0263  -2.2127   0.0000   0.0000   0.0000   0.1697
  -6.800  -0.4176   0.06760   0.06527  -0.0365  0.9957  0.0268  -2.2122   0.0000   0.0000   0.0000   0.1587
  -6.700  -0.4068   0.06510   0.06274  -0.0406  0.9938  0.0274  -2.2204   0.0000   0.0000   0.0000   0.1463
  -6.600  -0.3952   0.06239   0.06000  -0.0450  0.9922  0.0281  -2.2380   0.0000   0.0000   0.0000   0.1322
  -6.500  -0.3828   0.05951   0.05706  -0.0495  0.9907  0.0289  -2.2665   0.0000   0.0000   0.0000   0.1167
  -6.400  -0.3738   0.05688   0.05436  -0.0527  0.9882  0.0297  -2.3048   0.0000   0.0000   0.0000   0.1049
  -6.300  -0.3624   0.05399   0.05137  -0.0564  0.9856  0.0310  -2.3650   0.0000   0.0000   0.0000   0.0902
  -6.200  -0.3414   0.05285   0.05007  -0.0595  0.9836  0.0332  -2.4080   0.0000   0.0000   0.0000   0.0712
  -6.100  -0.3286   0.05112   0.04818  -0.0620  0.9814  0.0335  -2.4372   0.0000   0.0000   0.0000   0.0566
  -6.000  -0.3170   0.04913   0.04605  -0.0643  0.9795  0.0337  -2.4643   0.0000   0.0000   0.0000   0.0423
  -5.900  -0.3162   0.04134   0.03794  -0.0693  0.9768  0.0348  -2.7184   0.0000   0.0000   0.0000   0.0258
  -5.800  -0.3075   0.03838   0.03491  -0.0714  0.9755  0.0360  -2.7125   0.0000   0.0000   0.0000   0.0126
  -5.700  -0.2949   0.03727   0.03381  -0.0727  0.9746  0.0368  -2.6353   0.0000   0.0000   0.0000  -0.0017
  -5.600  -0.2816   0.03638   0.03291  -0.0740  0.9738  0.0376  -2.5540   0.0000   0.0000   0.0000  -0.0179
  -5.500  -0.2678   0.03544   0.03192  -0.0754  0.9730  0.0386  -2.4814   0.0000   0.0000   0.0000  -0.0367
  -5.400  -0.2569   0.03449   0.03092  -0.0761  0.9714  0.0395  -2.4268   0.0000   0.0000   0.0000  -0.0516
  -5.300  -0.2497   0.03362   0.02998  -0.0759  0.9681  0.0404  -2.3885   0.0000   0.0000   0.0000  -0.0594
  -5.200  -0.2393   0.03260   0.02888  -0.0764  0.9656  0.0415  -2.3475   0.0000   0.0000   0.0000  -0.0748
  -5.100  -0.2272   0.03168   0.02787  -0.0770  0.9636  0.0433  -2.2994   0.0000   0.0000   0.0000  -0.0948
  -5.000  -0.2125   0.03147   0.02756  -0.0776  0.9619  0.0466  -2.2325   0.0000   0.0000   0.0000  -0.1212
  -4.900  -0.1912   0.03448   0.03046  -0.0776  0.9607  0.0496  -2.0805   0.0000   0.0000   0.0000  -0.1619
  -4.800  -0.1877   0.02792   0.02350  -0.0800  0.9584  0.0525  -2.2109   0.0000   0.0000   0.0000  -0.1829
  -4.700  -0.1746   0.02672   0.02228  -0.0811  0.9573  0.0540  -2.1376   0.0000   0.0000   0.0000  -0.2214
  -4.600  -0.1604   0.02583   0.02137  -0.0821  0.9563  0.0550  -2.0621   0.0000   0.0000   0.0000  -0.2692
  -4.500  -0.1443   0.02040   0.01515  -0.0814  0.9553  0.0291  -2.4301   0.0000   0.0000   0.0000  -0.3235
  -4.400  -0.1288   0.01803   0.01223  -0.0815  0.9545  0.0242  -2.5607   0.0000   0.0000   0.0000  -0.3931
  -4.300  -0.1124   0.01780   0.01194  -0.0824  0.9538  0.0237  -2.4630   0.0000   0.0000   0.0000  -0.4945
  -4.200  -0.0963   0.01759   0.01169  -0.0833  0.9530  0.0234  -2.3610   0.0000   0.0000   0.0000  -0.6277
  -4.100  -0.0810   0.01699   0.01103  -0.0841  0.9522  0.0230  -2.2894   0.0000   0.0000   0.0000  -0.8026
  -4.000  -0.0666   0.01585   0.00977  -0.0847  0.9514  0.0226  -2.2863   0.0000   0.0000   0.0000  -1.0399
  -3.900  -0.0518   0.01512   0.00896  -0.0854  0.9505  0.0224  -2.2585   0.0000   0.0000   0.0000  -1.4212
  -3.800  -0.0441   0.01466   0.00844  -0.0846  0.9472  0.0223  -2.2347   0.0000   0.0000   0.0000  -1.6948
  -3.700  -0.0349   0.01421   0.00795  -0.0841  0.9439  0.0222  -2.2060   0.0000   0.0000   0.0000  -2.1930
  -3.600  -0.0235   0.01376   0.00745  -0.0841  0.9413  0.0222  -2.1714   0.0000   0.0000   0.0000  -3.3728
  -3.500  -0.0113   0.01334   0.00699  -0.0842  0.9391  0.0222  -2.1331   0.0000   0.0000   0.0000  -7.3032
  -3.400   0.0013   0.01296   0.00657  -0.0843  0.9370  0.0223  -2.0922   0.0000   0.0000   0.0000  64.4555
  -3.300   0.0143   0.01260   0.00618  -0.0846  0.9351  0.0224  -2.0491   0.0000   0.0000   0.0000   6.2461
  -3.200   0.0276   0.01227   0.00582  -0.0849  0.9333  0.0226  -2.0036   0.0000   0.0000   0.0000   3.3576
  -3.100   0.0411   0.01198   0.00550  -0.0853  0.9316  0.0229  -1.9561   0.0000   0.0000   0.0000   2.3463
  -3.000   0.0543   0.01164   0.00511  -0.0855  0.9299  0.0235  -1.9198   0.0000   0.0000   0.0000   1.8408
  -2.900   0.0672   0.01122   0.00464  -0.0858  0.9282  0.0251  -1.9016   0.0000   0.0000   0.0000   1.5389
  -2.800   0.0797   0.01098   0.00438  -0.0859  0.9262  0.0274  -1.8640   0.0000   0.0000   0.0000   1.3376
  -2.700   0.0877   0.01083   0.00422  -0.0852  0.9221  0.0298  -1.8279   0.0000   0.0000   0.0000   1.2289
  -2.600   0.0978   0.01068   0.00404  -0.0848  0.9184  0.0330  -1.7935   0.0000   0.0000   0.0000   1.1242
  -2.500   0.1082   0.01024   0.00374  -0.0845  0.9151  0.0644  -1.7912   0.0000   0.0000   0.0000   1.0369
  -2.400   0.1189   0.00985   0.00359  -0.0845  0.9121  0.1228  -1.7412   0.0000   0.0000   0.0000   0.9657
  -2.300   0.1301   0.00954   0.00349  -0.0845  0.9094  0.1744  -1.6733   0.0000   0.0000   0.0000   0.9046
  -2.200   0.1412   0.00926   0.00339  -0.0846  0.9068  0.2278  -1.6004   0.0000   0.0000   0.0000   0.8528
  -2.100   0.1524   0.00901   0.00330  -0.0846  0.9044  0.2756  -1.5256   0.0000   0.0000   0.0000   0.8083
  -2.000   0.1633   0.00878   0.00323  -0.0845  0.9018  0.3284  -1.4509   0.0000   0.0000   0.0000   0.7705
  -1.900   0.1721   0.00858   0.00320  -0.0841  0.8975  0.3737  -1.3833   0.0000   0.0000   0.0000   0.7412
  -1.800   0.1818   0.00840   0.00314  -0.0838  0.8933  0.4148  -1.3126   0.0000   0.0000   0.0000   0.7130
  -1.700   0.1919   0.00821   0.00308  -0.0835  0.8894  0.4590  -1.2406   0.0000   0.0000   0.0000   0.6870
  -1.600   0.2020   0.00799   0.00302  -0.0832  0.8858  0.5105  -1.1688   0.0000   0.0000   0.0000   0.6635
  -1.500   0.2117   0.00773   0.00298  -0.0828  0.8826  0.5787  -1.0986   0.0000   0.0000   0.0000   0.6424
  -1.400   0.2211   0.00747   0.00296  -0.0822  0.8796  0.6488  -1.0293   0.0000   0.0000   0.0000   0.6230
  -1.300   0.2295   0.00729   0.00295  -0.0814  0.8755  0.7067  -0.9598   0.0000   0.0000   0.0000   0.6057
  -1.200   0.2375   0.00715   0.00296  -0.0806  0.8704  0.7520  -0.8976   0.0000   0.0000   0.0000   0.5898
  -1.100   0.2460   0.00702   0.00293  -0.0797  0.8657  0.7875  -0.8347   0.0000   0.0000   0.0000   0.5744
  -1.000   0.2546   0.00691   0.00289  -0.0788  0.8614  0.8195  -0.7720   0.0000   0.0000   0.0000   0.5598
  -0.900   0.2633   0.00681   0.00284  -0.0779  0.8576  0.8519  -0.7100   0.0000   0.0000   0.0000   0.5460
  -0.800   0.2720   0.00673   0.00279  -0.0769  0.8539  0.8827  -0.6486   0.0000   0.0000   0.0000   0.5328
  -0.700   0.2813   0.00666   0.00277  -0.0762  0.8483  0.9108  -0.5868   0.0000   0.0000   0.0000   0.5208
  -0.600   0.2943   0.00661   0.00272  -0.0763  0.8430  0.9345  -0.5310   0.0000   0.0000   0.0000   0.5090
  -0.500   0.3104   0.00656   0.00264  -0.0771  0.8383  0.9542  -0.5439   0.0000   0.0000   0.0000   0.4981
  -0.400   0.3284   0.00651   0.00254  -0.0784  0.8340  0.9723  -0.5590   0.0000   0.0000   0.0000   0.4881
  -0.300   0.3487   0.00646   0.00244  -0.0802  0.8298  0.9871  -0.5756   0.0000   0.0000   0.0000   0.4793
  -0.200   0.3680   0.00643   0.00239  -0.0819  0.8237  1.0000  -0.5916   0.0000   0.0000   0.0000   0.4718
  -0.100   0.3774   0.00643   0.00234  -0.0815  0.8170  1.0000  -0.6017   0.0000   0.0000   0.0000   0.4650
   0.000   0.3871   0.00643   0.00228  -0.0811  0.8109  1.0000  -0.6125   0.0000   0.0000   0.0000   0.4585
   0.100   0.3970   0.00644   0.00223  -0.0807  0.8050  1.0000  -0.6240   0.0000   0.0000   0.0000   0.4523
   0.200   0.4067   0.00645   0.00221  -0.0804  0.7976  1.0000  -0.6353   0.0000   0.0000   0.0000   0.4465
   0.300   0.4166   0.00646   0.00217  -0.0801  0.7904  1.0000  -0.6469   0.0000   0.0000   0.0000   0.4409
   0.400   0.4268   0.00648   0.00212  -0.0797  0.7838  1.0000  -0.6587   0.0000   0.0000   0.0000   0.4355
   0.500   0.4368   0.00650   0.00211  -0.0795  0.7764  1.0000  -0.6703   0.0000   0.0000   0.0000   0.4305
   0.600   0.4469   0.00653   0.00209  -0.0792  0.7687  1.0000  -0.6829   0.0000   0.0000   0.0000   0.4256
   0.700   0.4571   0.00656   0.00206  -0.0789  0.7614  1.0000  -0.6960   0.0000   0.0000   0.0000   0.4210
   0.800   0.4674   0.00659   0.00205  -0.0786  0.7537  1.0000  -0.7092   0.0000   0.0000   0.0000   0.4166
   0.900   0.4776   0.00663   0.00204  -0.0784  0.7455  1.0000  -0.7224   0.0000   0.0000   0.0000   0.4124
   1.000   0.4878   0.00668   0.00202  -0.0781  0.7377  1.0000  -0.7357   0.0000   0.0000   0.0000   0.4083
   1.100   0.4982   0.00672   0.00202  -0.0779  0.7300  1.0000  -0.7491   0.0000   0.0000   0.0000   0.4044
   1.200   0.5085   0.00676   0.00203  -0.0777  0.7215  1.0000  -0.7627   0.0000   0.0000   0.0000   0.4007
   1.300   0.5187   0.00682   0.00202  -0.0774  0.7135  1.0000  -0.7777   0.0000   0.0000   0.0000   0.3971
   1.400   0.5291   0.00687   0.00203  -0.0772  0.7055  1.0000  -0.7927   0.0000   0.0000   0.0000   0.3937
   1.500   0.5394   0.00692   0.00204  -0.0770  0.6969  1.0000  -0.8078   0.0000   0.0000   0.0000   0.3904
   1.600   0.5496   0.00699   0.00204  -0.0767  0.6888  1.0000  -0.8229   0.0000   0.0000   0.0000   0.3872
   1.700   0.5600   0.00704   0.00206  -0.0766  0.6805  1.0000  -0.8382   0.0000   0.0000   0.0000   0.3842
   1.800   0.5704   0.00710   0.00208  -0.0763  0.6718  1.0000  -0.8534   0.0000   0.0000   0.0000   0.3813
   1.900   0.5806   0.00718   0.00209  -0.0761  0.6636  1.0000  -0.8686   0.0000   0.0000   0.0000   0.3785
   2.000   0.5910   0.00723   0.00211  -0.0759  0.6554  1.0000  -0.8851   0.0000   0.0000   0.0000   0.3758
   2.100   0.6013   0.00729   0.00214  -0.0757  0.6467  1.0000  -0.9025   0.0000   0.0000   0.0000   0.3731
   2.300   0.6220   0.00743   0.00219  -0.0753  0.6297  1.0000  -0.9374   0.0000   0.0000   0.0000   0.3682
   2.400   0.6322   0.00751   0.00222  -0.0751  0.6208  1.0000  -0.9550   0.0000   0.0000   0.0000   0.3658
   2.500   0.6424   0.00760   0.00225  -0.0749  0.6128  1.0000  -0.9725   0.0000   0.0000   0.0000   0.3635
   2.600   0.6529   0.00765   0.00231  -0.0747  0.6043  1.0000  -0.9904   0.0000   0.0000   0.0000   0.3613
   2.700   0.6631   0.00773   0.00234  -0.0745  0.5955  1.0000  -1.0080   0.0000   0.0000   0.0000   0.3591
   2.800   0.6733   0.00782   0.00238  -0.0743  0.5872  1.0000  -1.0277   0.0000   0.0000   0.0000   0.3570
   2.900   0.6837   0.00789   0.00242  -0.0742  0.5781  1.0000  -1.0483   0.0000   0.0000   0.0000   0.3550
   3.000   0.6937   0.00798   0.00246  -0.0739  0.5690  1.0000  -1.0686   0.0000   0.0000   0.0000   0.3530
   3.100   0.7040   0.00806   0.00251  -0.0737  0.5607  1.0000  -1.0893   0.0000   0.0000   0.0000   0.3511
   3.200   0.7144   0.00813   0.00256  -0.0736  0.5518  1.0000  -1.1101   0.0000   0.0000   0.0000   0.3493
   3.300   0.7244   0.00824   0.00261  -0.0733  0.5436  1.0000  -1.1306   0.0000   0.0000   0.0000   0.3474
   3.400   0.7348   0.00831   0.00266  -0.0732  0.5352  1.0000  -1.1516   0.0000   0.0000   0.0000   0.3457
   3.500   0.7449   0.00840   0.00271  -0.0730  0.5260  1.0000  -1.1725   0.0000   0.0000   0.0000   0.3440
   3.600   0.7548   0.00852   0.00277  -0.0727  0.5171  1.0000  -1.1951   0.0000   0.0000   0.0000   0.3423
   3.700   0.7652   0.00859   0.00283  -0.0726  0.5079  1.0000  -1.2198   0.0000   0.0000   0.0000   0.3407
   3.800   0.7752   0.00869   0.00289  -0.0724  0.4985  1.0000  -1.2440   0.0000   0.0000   0.0000   0.3391
   3.900   0.7852   0.00880   0.00295  -0.0721  0.4901  1.0000  -1.2684   0.0000   0.0000   0.0000   0.3375
   4.000   0.7955   0.00888   0.00302  -0.0720  0.4815  1.0000  -1.2933   0.0000   0.0000   0.0000   0.3361
   4.100   0.8054   0.00899   0.00312  -0.0718  0.4727  1.0000  -1.3177   0.0000   0.0000   0.0000   0.3346
   4.200   0.8156   0.00909   0.00319  -0.0716  0.4642  1.0000  -1.3426   0.0000   0.0000   0.0000   0.3331
   4.300   0.8257   0.00919   0.00326  -0.0714  0.4547  1.0000  -1.3675   0.0000   0.0000   0.0000   0.3317
   4.500   0.8455   0.00941   0.00342  -0.0710  0.4361  1.0000  -1.4240   0.0000   0.0000   0.0000   0.3290
   4.600   0.8553   0.00953   0.00350  -0.0707  0.4264  1.0000  -1.4584   0.0000   0.0000   0.0000   0.3277
   4.700   0.8652   0.00965   0.00358  -0.0705  0.4179  1.0000  -1.4931   0.0000   0.0000   0.0000   0.3264
   4.800   0.8754   0.00975   0.00367  -0.0703  0.4092  1.0000  -1.5286   0.0000   0.0000   0.0000   0.3251
   4.900   0.8850   0.00989   0.00376  -0.0701  0.4002  1.0000  -1.5633   0.0000   0.0000   0.0000   0.3239
   5.000   0.8950   0.01000   0.00385  -0.0699  0.3916  1.0000  -1.5990   0.0000   0.0000   0.0000   0.3227
   5.100   0.9048   0.01012   0.00394  -0.0697  0.3819  1.0000  -1.6346   0.0000   0.0000   0.0000   0.3215
   5.200   0.9142   0.01028   0.00404  -0.0694  0.3725  1.0000  -1.6695   0.0000   0.0000   0.0000   0.3203
   5.300   0.9243   0.01038   0.00414  -0.0692  0.3632  1.0000  -1.7070   0.0000   0.0000   0.0000   0.3192
   5.400   0.9338   0.01053   0.00424  -0.0690  0.3536  1.0000  -1.7476   0.0000   0.0000   0.0000   0.3180
   5.500   0.9435   0.01067   0.00439  -0.0687  0.3454  1.0000  -1.7889   0.0000   0.0000   0.0000   0.3169
   5.600   0.9535   0.01078   0.00450  -0.0685  0.3368  1.0000  -1.8595   0.0000   0.0000   0.0000   0.3158
   5.700   0.9628   0.01095   0.00462  -0.0682  0.3281  1.0000  -1.9360   0.0000   0.0000   0.0000   0.3147
   5.800   0.9726   0.01107   0.00473  -0.0681  0.3203  1.0000  -2.0162   0.0000   0.0000   0.0000   0.3137
   5.900   0.9823   0.01121   0.00485  -0.0678  0.3114  1.0000  -2.0969   0.0000   0.0000   0.0000   0.3127
   6.100   1.0012   0.01152   0.00510  -0.0673  0.2930  1.0000  -2.2594   0.0000   0.0000   0.0000   0.3106
   6.200   1.0103   0.01170   0.00523  -0.0670  0.2828  1.0000  -2.3408   0.0000   0.0000   0.0000   0.3096
   6.300   1.0197   0.01186   0.00537  -0.0668  0.2737  1.0000  -2.4243   0.0000   0.0000   0.0000   0.3086
   6.400   1.0291   0.01202   0.00549  -0.0665  0.2640  1.0000  -2.5089   0.0000   0.0000   0.0000   0.3077
   6.500   1.0378   0.01224   0.00565  -0.0662  0.2543  1.0000  -2.5912   0.0000   0.0000   0.0000   0.3067
   6.600   1.0476   0.01237   0.00578  -0.0660  0.2455  1.0000  -2.6791   0.0000   0.0000   0.0000   0.3058
   6.700   1.0564   0.01257   0.00592  -0.0656  0.2359  1.0000  -2.7640   0.0000   0.0000   0.0000   0.3048
   6.800   1.0656   0.01274   0.00608  -0.0654  0.2272  1.0000  -2.8511   0.0000   0.0000   0.0000   0.3039
   6.900   1.0748   0.01292   0.00622  -0.0651  0.2179  1.0000  -2.9393   0.0000   0.0000   0.0000   0.3030
   7.000   1.0832   0.01316   0.00643  -0.0647  0.2084  1.0000  -3.0276   0.0000   0.0000   0.0000   0.3021
   7.100   1.0929   0.01329   0.00657  -0.0645  0.2010  1.0000  -3.1199   0.0000   0.0000   0.0000   0.3012
   7.200   1.1018   0.01349   0.00673  -0.0642  0.1929  1.0000  -3.2093   0.0000   0.0000   0.0000   0.3004
   7.300   1.1103   0.01372   0.00692  -0.0638  0.1850  1.0000  -3.2970   0.0000   0.0000   0.0000   0.2995
   7.400   1.1198   0.01386   0.00707  -0.0636  0.1787  1.0000  -3.3905   0.0000   0.0000   0.0000   0.2986
   7.500   1.1286   0.01406   0.00725  -0.0633  0.1713  1.0000  -3.4814   0.0000   0.0000   0.0000   0.2978
   7.600   1.1368   0.01431   0.00745  -0.0629  0.1636  1.0000  -3.5695   0.0000   0.0000   0.0000   0.2969
   7.700   1.1463   0.01445   0.00761  -0.0626  0.1581  1.0000  -3.6645   0.0000   0.0000   0.0000   0.2961
   7.800   1.1552   0.01464   0.00779  -0.0623  0.1513  1.0000  -3.7572   0.0000   0.0000   0.0000   0.2953
   7.900   1.1632   0.01491   0.00800  -0.0619  0.1435  1.0000  -3.8465   0.0000   0.0000   0.0000   0.2944
   8.000   1.1721   0.01509   0.00818  -0.0616  0.1367  1.0000  -3.9406   0.0000   0.0000   0.0000   0.2936
   8.100   1.1805   0.01531   0.00837  -0.0613  0.1287  1.0000  -4.0334   0.0000   0.0000   0.0000   0.2928
   8.200   1.1881   0.01561   0.00860  -0.0608  0.1201  1.0000  -4.1216   0.0000   0.0000   0.0000   0.2920
   8.300   1.1971   0.01577   0.00879  -0.0605  0.1146  1.0000  -4.2171   0.0000   0.0000   0.0000   0.2912
   8.400   1.2053   0.01600   0.00899  -0.0601  0.1079  1.0000  -4.3096   0.0000   0.0000   0.0000   0.2904
   8.500   1.2129   0.01629   0.00924  -0.0596  0.1010  1.0000  -4.3981   0.0000   0.0000   0.0000   0.2896
   8.600   1.2213   0.01650   0.00948  -0.0593  0.0958  1.0000  -4.4898   0.0000   0.0000   0.0000   0.2888
   8.700   1.2295   0.01673   0.00970  -0.0589  0.0898  1.0000  -4.5815   0.0000   0.0000   0.0000   0.2880
   8.800   1.2368   0.01703   0.00996  -0.0584  0.0831  1.0000  -4.6683   0.0000   0.0000   0.0000   0.2872
   8.900   1.2444   0.01730   0.01022  -0.0579  0.0773  1.0000  -4.7551   0.0000   0.0000   0.0000   0.2864
   9.000   1.2523   0.01754   0.01046  -0.0575  0.0716  1.0000  -4.8428   0.0000   0.0000   0.0000   0.2856
   9.100   1.2589   0.01789   0.01075  -0.0569  0.0639  1.0000  -4.9221   0.0000   0.0000   0.0000   0.2848
   9.200   1.2658   0.01821   0.01105  -0.0563  0.0566  1.0000  -4.9988   0.0000   0.0000   0.0000   0.2839
   9.300   1.2710   0.01868   0.01143  -0.0555  0.0466  1.0000  -5.0632   0.0000   0.0000   0.0000   0.2830
   9.400   1.2757   0.01919   0.01187  -0.0546  0.0365  1.0000  -5.1154   0.0000   0.0000   0.0000   0.2820
   9.500   1.2793   0.01979   0.01241  -0.0536  0.0281  1.0000  -5.1501   0.0000   0.0000   0.0000   0.2809
   9.600   1.2834   0.02032   0.01291  -0.0526  0.0239  1.0000  -5.1920   0.0000   0.0000   0.0000   0.2799
   9.700   1.2853   0.02102   0.01363  -0.0512  0.0205  1.0000  -5.2024   0.0000   0.0000   0.0000   0.2786
   9.800   1.2914   0.02134   0.01399  -0.0505  0.0198  1.0000  -5.2632   0.0000   0.0000   0.0000   0.2777
   9.900   1.2968   0.02169   0.01438  -0.0496  0.0190  1.0000  -5.3285   0.0000   0.0000   0.0000   0.2768
  10.000   1.3014   0.02205   0.01479  -0.0486  0.0184  1.0000  -5.4066   0.0000   0.0000   0.0000   0.2757
  10.100   1.3055   0.02242   0.01520  -0.0476  0.0178  1.0000  -5.4831   0.0000   0.0000   0.0000   0.2747
  10.200   1.3092   0.02280   0.01562  -0.0465  0.0173  1.0000  -5.5584   0.0000   0.0000   0.0000   0.2736
  10.300   1.3125   0.02320   0.01606  -0.0454  0.0168  1.0000  -5.6324   0.0000   0.0000   0.0000   0.2725
  10.400   1.3155   0.02362   0.01652  -0.0442  0.0164  1.0000  -5.7045   0.0000   0.0000   0.0000   0.2714
  10.500   1.3182   0.02407   0.01700  -0.0431  0.0161  1.0000  -5.7745   0.0000   0.0000   0.0000   0.2703
  10.600   1.3206   0.02454   0.01751  -0.0419  0.0157  1.0000  -5.8422   0.0000   0.0000   0.0000   0.2692
  10.700   1.3225   0.02505   0.01805  -0.0407  0.0155  1.0000  -5.9061   0.0000   0.0000   0.0000   0.2682
  10.800   1.3240   0.02559   0.01864  -0.0395  0.0152  1.0000  -5.9662   0.0000   0.0000   0.0000   0.2671
  10.900   1.3249   0.02617   0.01927  -0.0383  0.0150  1.0000  -6.0222   0.0000   0.0000   0.0000   0.2660
  11.000   1.3253   0.02680   0.01995  -0.0370  0.0148  1.0000  -6.0743   0.0000   0.0000   0.0000   0.2648
  11.100   1.3254   0.02746   0.02069  -0.0358  0.0146  1.0000  -6.1211   0.0000   0.0000   0.0000   0.2638
  11.200   1.3252   0.02816   0.02145  -0.0346  0.0145  1.0000  -6.1671   0.0000   0.0000   0.0000   0.2627
  11.300   1.3248   0.02890   0.02225  -0.0334  0.0143  1.0000  -6.2109   0.0000   0.0000   0.0000   0.2617
  11.400   1.3242   0.02968   0.02308  -0.0322  0.0142  1.0000  -6.2530   0.0000   0.0000   0.0000   0.2606
  11.500   1.3234   0.03050   0.02396  -0.0311  0.0141  1.0000  -6.2931   0.0000   0.0000   0.0000   0.2597
  11.600   1.3226   0.03135   0.02487  -0.0301  0.0140  1.0000  -6.3323   0.0000   0.0000   0.0000   0.2587
  11.700   1.3215   0.03224   0.02583  -0.0290  0.0140  1.0000  -6.3698   0.0000   0.0000   0.0000   0.2578
  11.800   1.3205   0.03317   0.02682  -0.0281  0.0139  1.0000  -6.4060   0.0000   0.0000   0.0000   0.2569
  11.900   1.3192   0.03417   0.02787  -0.0272  0.0138  1.0000  -6.4396   0.0000   0.0000   0.0000   0.2561
  12.000   1.3178   0.03521   0.02899  -0.0263  0.0137  1.0000  -6.4708   0.0000   0.0000   0.0000   0.2553
  12.100   1.3163   0.03632   0.03016  -0.0255  0.0137  1.0000  -6.4996   0.0000   0.0000   0.0000   0.2546
  12.200   1.3174   0.03713   0.03102  -0.0249  0.0136  1.0000  -6.5571   0.0000   0.0000   0.0000   0.2539
  12.300   1.3187   0.03794   0.03189  -0.0244  0.0136  1.0000  -6.6170   0.0000   0.0000   0.0000   0.2533
  12.400   1.3199   0.03877   0.03277  -0.0239  0.0135  1.0000  -6.6766   0.0000   0.0000   0.0000   0.2528
  12.500   1.3210   0.03962   0.03368  -0.0234  0.0135  1.0000  -6.7359   0.0000   0.0000   0.0000   0.2522
  12.600   1.3221   0.04049   0.03461  -0.0229  0.0134  1.0000  -6.7951   0.0000   0.0000   0.0000   0.2517
  12.700   1.3230   0.04140   0.03557  -0.0226  0.0133  1.0000  -6.8528   0.0000   0.0000   0.0000   0.2512
  12.800   1.3237   0.04233   0.03656  -0.0222  0.0133  1.0000  -6.9098   0.0000   0.0000   0.0000   0.2508
  12.900   1.3243   0.04330   0.03759  -0.0219  0.0132  1.0000  -6.9650   0.0000   0.0000   0.0000   0.2503
  13.000   1.3247   0.04430   0.03865  -0.0216  0.0131  1.0000  -7.0181   0.0000   0.0000   0.0000   0.2499
  13.100   1.3249   0.04534   0.03975  -0.0213  0.0130  1.0000  -7.0695   0.0000   0.0000   0.0000   0.2496
  13.200   1.3248   0.04644   0.04091  -0.0211  0.0130  1.0000  -7.1178   0.0000   0.0000   0.0000   0.2492
  13.300   1.3245   0.04757   0.04211  -0.0210  0.0129  1.0000  -7.1643   0.0000   0.0000   0.0000   0.2489
  13.400   1.3240   0.04877   0.04337  -0.0208  0.0128  1.0000  -7.2073   0.0000   0.0000   0.0000   0.2486
  13.500   1.3232   0.05002   0.04468  -0.0208  0.0128  1.0000  -7.2471   0.0000   0.0000   0.0000   0.2484
  13.600   1.3222   0.05133   0.04606  -0.0207  0.0127  1.0000  -7.2829   0.0000   0.0000   0.0000   0.2482
  13.700   1.3208   0.05271   0.04751  -0.0207  0.0127  1.0000  -7.3145   0.0000   0.0000   0.0000   0.2480
  13.800   1.3192   0.05413   0.04901  -0.0208  0.0127  1.0000  -7.3440   0.0000   0.0000   0.0000   0.2479
  13.900   1.3174   0.05562   0.05056  -0.0209  0.0127  1.0000  -7.3706   0.0000   0.0000   0.0000   0.2478
  14.000   1.3154   0.05714   0.05215  -0.0211  0.0126  1.0000  -7.3951   0.0000   0.0000   0.0000   0.2478
  14.100   1.3130   0.05873   0.05382  -0.0213  0.0126  1.0000  -7.4161   0.0000   0.0000   0.0000   0.2478
  14.200   1.3106   0.06037   0.05553  -0.0216  0.0126  1.0000  -7.4354   0.0000   0.0000   0.0000   0.2479
  14.300   1.3078   0.06209   0.05732  -0.0220  0.0126  1.0000  -7.4512   0.0000   0.0000   0.0000   0.2480
  14.400   1.3049   0.06385   0.05916  -0.0224  0.0126  1.0000  -7.4652   0.0000   0.0000   0.0000   0.2482
  14.500   1.3016   0.06570   0.06108  -0.0229  0.0126  1.0000  -7.4754   0.0000   0.0000   0.0000   0.2485
  14.600   1.2983   0.06760   0.06305  -0.0235  0.0126  1.0000  -7.4837   0.0000   0.0000   0.0000   0.2488
  14.700   1.2945   0.06959   0.06512  -0.0242  0.0125  1.0000  -7.4879   0.0000   0.0000   0.0000   0.2491
  14.800   1.2907   0.07163   0.06724  -0.0249  0.0125  1.0000  -7.4902   0.0000   0.0000   0.0000   0.2496
  14.900   1.2865   0.07378   0.06946  -0.0258  0.0125  1.0000  -7.4881   0.0000   0.0000   0.0000   0.2501
  15.000   1.2822   0.07597   0.07172  -0.0267  0.0125  1.0000  -7.4836   0.0000   0.0000   0.0000   0.2507


