xflr5 v6.61

 Calculated polar for: SD7037-092-88

 1 1 Reynolds number fixed          Mach number fixed         

 xtrf =   1.000 (top)        1.000 (bottom)
 Mach =   0.000     Re =     0.500 e 6     Ncrit =   9.000

  alpha     CL        CD       CDp       Cm    Top Xtr Bot Xtr   Cpmin    Chinge    XCp    
 ------- -------- --------- --------- -------- ------- ------- -------- --------- ---------
 -10.000  -0.3698   0.10466   0.10227  -0.0320  1.0000  0.0154  -1.9486   0.0000   0.0000   0.0000   0.1556
  -9.900  -0.3688   0.10327   0.10088  -0.0325  1.0000  0.0154  -1.9658   0.0000   0.0000   0.0000   0.1542
  -9.800  -0.3678   0.10187   0.09950  -0.0329  1.0000  0.0154  -1.9835   0.0000   0.0000   0.0000   0.1529
  -9.700  -0.3669   0.10048   0.09811  -0.0333  1.0000  0.0155  -2.0018   0.0000   0.0000   0.0000   0.1516
  -9.600  -0.3661   0.09908   0.09673  -0.0337  1.0000  0.0155  -2.0207   0.0000   0.0000   0.0000   0.1504
  -9.500  -0.3776   0.09503   0.09271  -0.0345  1.0000  0.0160  -2.2020   0.0000   0.0000   0.0000   0.1512
  -9.400  -0.3780   0.09359   0.09128  -0.0348  1.0000  0.0161  -2.2114   0.0000   0.0000   0.0000   0.1507
  -9.300  -0.3771   0.09248   0.09018  -0.0349  1.0000  0.0162  -2.1950   0.0000   0.0000   0.0000   0.1504
  -9.200  -0.3762   0.09139   0.08910  -0.0349  1.0000  0.0163  -2.1797   0.0000   0.0000   0.0000   0.1501
  -9.100  -0.3754   0.09031   0.08803  -0.0350  1.0000  0.0164  -2.1662   0.0000   0.0000   0.0000   0.1498
  -9.000  -0.3747   0.08924   0.08697  -0.0351  1.0000  0.0165  -2.1548   0.0000   0.0000   0.0000   0.1496
  -8.900  -0.3742   0.08819   0.08594  -0.0351  1.0000  0.0166  -2.1440   0.0000   0.0000   0.0000   0.1494
  -8.800  -0.3739   0.08717   0.08492  -0.0351  1.0000  0.0167  -2.1336   0.0000   0.0000   0.0000   0.1494
  -8.700  -0.3739   0.08614   0.08391  -0.0351  1.0000  0.0168  -2.1261   0.0000   0.0000   0.0000   0.1496
  -8.600  -0.3743   0.08512   0.08291  -0.0351  1.0000  0.0169  -2.1216   0.0000   0.0000   0.0000   0.1499
  -8.500  -0.3752   0.08412   0.08192  -0.0349  1.0000  0.0170  -2.1201   0.0000   0.0000   0.0000   0.1507
  -8.400  -0.3767   0.08315   0.08097  -0.0347  1.0000  0.0171  -2.1213   0.0000   0.0000   0.0000   0.1518
  -8.300  -0.3790   0.08222   0.08005  -0.0344  1.0000  0.0172  -2.1253   0.0000   0.0000   0.0000   0.1534
  -8.200  -0.3821   0.08133   0.07918  -0.0338  1.0000  0.0173  -2.1326   0.0000   0.0000   0.0000   0.1556
  -8.100  -0.3861   0.08050   0.07837  -0.0332  1.0000  0.0174  -2.1431   0.0000   0.0000   0.0000   0.1585
  -8.000  -0.3912   0.07973   0.07762  -0.0323  1.0000  0.0174  -2.1567   0.0000   0.0000   0.0000   0.1619
  -7.900  -0.3972   0.07901   0.07692  -0.0313  1.0000  0.0175  -2.1732   0.0000   0.0000   0.0000   0.1659
  -7.800  -0.4042   0.07834   0.07628  -0.0302  1.0000  0.0175  -2.1927   0.0000   0.0000   0.0000   0.1703
  -7.700  -0.4122   0.07773   0.07569  -0.0289  1.0000  0.0175  -2.2155   0.0000   0.0000   0.0000   0.1751
  -7.600  -0.4215   0.07718   0.07517  -0.0274  1.0000  0.0175  -2.2420   0.0000   0.0000   0.0000   0.1803
  -7.500  -0.4221   0.07583   0.07383  -0.0285  0.9992  0.0176  -2.2545   0.0000   0.0000   0.0000   0.1779
  -7.400  -0.4147   0.07368   0.07168  -0.0319  0.9974  0.0178  -2.2576   0.0000   0.0000   0.0000   0.1685
  -7.300  -0.4052   0.07118   0.06917  -0.0361  0.9955  0.0181  -2.2646   0.0000   0.0000   0.0000   0.1562
  -7.200  -0.3954   0.06849   0.06647  -0.0409  0.9936  0.0184  -2.2808   0.0000   0.0000   0.0000   0.1421
  -7.100  -0.3852   0.06559   0.06356  -0.0460  0.9920  0.0187  -2.3070   0.0000   0.0000   0.0000   0.1261
  -7.000  -0.3747   0.06251   0.06046  -0.0512  0.9905  0.0191  -2.3431   0.0000   0.0000   0.0000   0.1088
  -6.900  -0.3677   0.05972   0.05763  -0.0550  0.9880  0.0194  -2.3851   0.0000   0.0000   0.0000   0.0958
  -6.800  -0.3591   0.05669   0.05456  -0.0590  0.9854  0.0198  -2.4353   0.0000   0.0000   0.0000   0.0809
  -6.700  -0.3492   0.05342   0.05122  -0.0632  0.9831  0.0204  -2.5005   0.0000   0.0000   0.0000   0.0642
  -6.600  -0.3374   0.04970   0.04739  -0.0675  0.9809  0.0214  -2.6049   0.0000   0.0000   0.0000   0.0448
  -6.500  -0.3180   0.04759   0.04511  -0.0706  0.9795  0.0229  -2.6915   0.0000   0.0000   0.0000   0.0227
  -6.400  -0.3064   0.04523   0.04258  -0.0733  0.9779  0.0230  -2.7477   0.0000   0.0000   0.0000   0.0052
  -6.300  -0.2952   0.04296   0.04015  -0.0757  0.9766  0.0231  -2.7940   0.0000   0.0000   0.0000  -0.0124
  -6.200  -0.2960   0.03467   0.03152  -0.0808  0.9745  0.0245  -3.0911   0.0000   0.0000   0.0000  -0.0291
  -6.100  -0.2835   0.03373   0.03057  -0.0821  0.9739  0.0251  -3.0007   0.0000   0.0000   0.0000  -0.0458
  -6.000  -0.2703   0.03311   0.02993  -0.0833  0.9733  0.0257  -2.8977   0.0000   0.0000   0.0000  -0.0644
  -5.900  -0.2568   0.03242   0.02922  -0.0846  0.9728  0.0264  -2.8075   0.0000   0.0000   0.0000  -0.0857
  -5.800  -0.2487   0.03177   0.02853  -0.0845  0.9705  0.0271  -2.7496   0.0000   0.0000   0.0000  -0.0962
  -5.700  -0.2403   0.03104   0.02773  -0.0845  0.9679  0.0280  -2.7008   0.0000   0.0000   0.0000  -0.1081
  -5.600  -0.2294   0.03019   0.02680  -0.0850  0.9659  0.0291  -2.6540   0.0000   0.0000   0.0000  -0.1270
  -5.500  -0.2169   0.02948   0.02600  -0.0855  0.9643  0.0306  -2.6048   0.0000   0.0000   0.0000  -0.1510
  -5.400  -0.2005   0.03039   0.02688  -0.0856  0.9633  0.0328  -2.4909   0.0000   0.0000   0.0000  -0.1842
  -5.300  -0.1846   0.03144   0.02785  -0.0858  0.9620  0.0336  -2.3765   0.0000   0.0000   0.0000  -0.2224
  -5.200  -0.1726   0.03052   0.02680  -0.0864  0.9604  0.0337  -2.3344   0.0000   0.0000   0.0000  -0.2588
  -5.100  -0.1605   0.02946   0.02562  -0.0871  0.9588  0.0337  -2.2936   0.0000   0.0000   0.0000  -0.3012
  -4.900  -0.1462   0.02236   0.01810  -0.0895  0.9551  0.0378  -2.3591   0.0000   0.0000   0.0000  -0.3711
  -4.800  -0.1336   0.02193   0.01768  -0.0900  0.9539  0.0389  -2.2589   0.0000   0.0000   0.0000  -0.4339
  -4.700  -0.1211   0.02150   0.01722  -0.0905  0.9526  0.0402  -2.1683   0.0000   0.0000   0.0000  -0.5081
  -4.600  -0.1088   0.02101   0.01667  -0.0908  0.9511  0.0415  -2.0915   0.0000   0.0000   0.0000  -0.5963
  -4.500  -0.0985   0.02045   0.01605  -0.0907  0.9490  0.0425  -2.0330   0.0000   0.0000   0.0000  -0.6827
  -4.400  -0.0903   0.01978   0.01528  -0.0901  0.9461  0.0428  -1.9928   0.0000   0.0000   0.0000  -0.7604
  -4.200  -0.0704   0.01344   0.00789  -0.0871  0.9405  0.0188  -2.4536   0.0000   0.0000   0.0000  -1.0054
  -4.100  -0.0596   0.01287   0.00724  -0.0869  0.9382  0.0184  -2.4388   0.0000   0.0000   0.0000  -1.2275
  -4.000  -0.0486   0.01238   0.00666  -0.0867  0.9360  0.0180  -2.4150   0.0000   0.0000   0.0000  -1.5567
  -3.900  -0.0375   0.01198   0.00620  -0.0865  0.9339  0.0178  -2.3816   0.0000   0.0000   0.0000  -2.0856
  -3.800  -0.0265   0.01163   0.00581  -0.0864  0.9318  0.0176  -2.3418   0.0000   0.0000   0.0000  -3.0547
  -3.700  -0.0155   0.01132   0.00546  -0.0862  0.9298  0.0175  -2.2980   0.0000   0.0000   0.0000  -5.3628
  -3.600  -0.0045   0.01105   0.00514  -0.0860  0.9277  0.0175  -2.2513   0.0000   0.0000   0.0000  -19.1100
  -3.500   0.0058   0.01081   0.00487  -0.0857  0.9252  0.0175  -2.2049   0.0000   0.0000   0.0000  15.3061
  -3.400   0.0153   0.01058   0.00462  -0.0853  0.9222  0.0176  -2.1591   0.0000   0.0000   0.0000   5.8767
  -3.300   0.0253   0.01036   0.00437  -0.0850  0.9191  0.0177  -2.1118   0.0000   0.0000   0.0000   3.6459
  -3.200   0.0356   0.01015   0.00413  -0.0847  0.9160  0.0179  -2.0632   0.0000   0.0000   0.0000   2.6562
  -3.100   0.0460   0.00995   0.00391  -0.0844  0.9130  0.0182  -2.0137   0.0000   0.0000   0.0000   2.1017
  -3.000   0.0566   0.00977   0.00369  -0.0841  0.9102  0.0186  -1.9637   0.0000   0.0000   0.0000   1.7497
  -2.900   0.0673   0.00960   0.00349  -0.0839  0.9076  0.0191  -1.9138   0.0000   0.0000   0.0000   1.5078
  -2.800   0.0782   0.00945   0.00330  -0.0837  0.9051  0.0198  -1.8646   0.0000   0.0000   0.0000   1.3295
  -2.700   0.0892   0.00931   0.00314  -0.0835  0.9024  0.0209  -1.8182   0.0000   0.0000   0.0000   1.1938
  -2.600   0.0995   0.00919   0.00298  -0.0832  0.8991  0.0223  -1.7776   0.0000   0.0000   0.0000   1.0930
  -2.500   0.1099   0.00902   0.00279  -0.0829  0.8955  0.0260  -1.7521   0.0000   0.0000   0.0000   1.0100
  -2.400   0.1203   0.00878   0.00263  -0.0827  0.8919  0.0408  -1.7198   0.0000   0.0000   0.0000   0.9422
  -2.300   0.1303   0.00845   0.00249  -0.0825  0.8883  0.0866  -1.6726   0.0000   0.0000   0.0000   0.8871
  -2.200   0.1407   0.00825   0.00239  -0.0823  0.8849  0.1199  -1.6080   0.0000   0.0000   0.0000   0.8386
  -2.100   0.1512   0.00805   0.00231  -0.0822  0.8817  0.1566  -1.5375   0.0000   0.0000   0.0000   0.7966
  -2.000   0.1617   0.00784   0.00224  -0.0820  0.8785  0.1986  -1.4648   0.0000   0.0000   0.0000   0.7600
  -1.900   0.1719   0.00763   0.00220  -0.0819  0.8746  0.2472  -1.3929   0.0000   0.0000   0.0000   0.7292
  -1.800   0.1820   0.00741   0.00216  -0.0818  0.8702  0.2988  -1.3208   0.0000   0.0000   0.0000   0.7016
  -1.700   0.1923   0.00725   0.00211  -0.0817  0.8658  0.3387  -1.2479   0.0000   0.0000   0.0000   0.6763
  -1.600   0.2028   0.00709   0.00205  -0.0815  0.8615  0.3766  -1.1748   0.0000   0.0000   0.0000   0.6534
  -1.500   0.2133   0.00694   0.00200  -0.0813  0.8576  0.4153  -1.1018   0.0000   0.0000   0.0000   0.6325
  -1.400   0.2238   0.00680   0.00195  -0.0811  0.8537  0.4564  -1.0290   0.0000   0.0000   0.0000   0.6136
  -1.300   0.2340   0.00664   0.00193  -0.0810  0.8487  0.5016  -0.9548   0.0000   0.0000   0.0000   0.5969
  -1.200   0.2438   0.00644   0.00192  -0.0807  0.8434  0.5631  -0.8870   0.0000   0.0000   0.0000   0.5816
  -1.100   0.2533   0.00623   0.00191  -0.0803  0.8382  0.6296  -0.8208   0.0000   0.0000   0.0000   0.5674
  -1.000   0.2626   0.00605   0.00190  -0.0798  0.8334  0.6871  -0.7560   0.0000   0.0000   0.0000   0.5540
  -0.900   0.2721   0.00593   0.00190  -0.0793  0.8285  0.7329  -0.6919   0.0000   0.0000   0.0000   0.5414
  -0.800   0.2814   0.00583   0.00191  -0.0787  0.8227  0.7689  -0.6293   0.0000   0.0000   0.0000   0.5297
  -0.700   0.2906   0.00574   0.00190  -0.0781  0.8166  0.8024  -0.5679   0.0000   0.0000   0.0000   0.5185
  -0.600   0.2993   0.00567   0.00188  -0.0773  0.8108  0.8333  -0.5343   0.0000   0.0000   0.0000   0.5080
  -0.500   0.3080   0.00561   0.00186  -0.0765  0.8052  0.8609  -0.5432   0.0000   0.0000   0.0000   0.4980
  -0.400   0.3170   0.00557   0.00186  -0.0758  0.7988  0.8841  -0.5528   0.0000   0.0000   0.0000   0.4887
  -0.300   0.3263   0.00554   0.00184  -0.0752  0.7920  0.9047  -0.5629   0.0000   0.0000   0.0000   0.4798
  -0.200   0.3365   0.00552   0.00180  -0.0748  0.7855  0.9248  -0.5736   0.0000   0.0000   0.0000   0.4714
  -0.100   0.3493   0.00551   0.00177  -0.0749  0.7791  0.9460  -0.5858   0.0000   0.0000   0.0000   0.4635
   0.000   0.3658   0.00549   0.00173  -0.0759  0.7717  0.9654  -0.6002   0.0000   0.0000   0.0000   0.4565
   0.100   0.3840   0.00549   0.00167  -0.0773  0.7642  0.9821  -0.6166   0.0000   0.0000   0.0000   0.4503
   0.200   0.4016   0.00550   0.00162  -0.0787  0.7571  0.9957  -0.6331   0.0000   0.0000   0.0000   0.4447
   0.300   0.4146   0.00552   0.00161  -0.0791  0.7491  1.0000  -0.6466   0.0000   0.0000   0.0000   0.4394
   0.400   0.4245   0.00556   0.00159  -0.0788  0.7408  1.0000  -0.6582   0.0000   0.0000   0.0000   0.4341
   0.500   0.4345   0.00562   0.00157  -0.0785  0.7332  1.0000  -0.6698   0.0000   0.0000   0.0000   0.4291
   0.600   0.4448   0.00565   0.00157  -0.0783  0.7251  1.0000  -0.6824   0.0000   0.0000   0.0000   0.4244
   0.700   0.4549   0.00570   0.00157  -0.0780  0.7167  1.0000  -0.6955   0.0000   0.0000   0.0000   0.4198
   0.800   0.4650   0.00576   0.00156  -0.0778  0.7090  1.0000  -0.7086   0.0000   0.0000   0.0000   0.4155
   0.900   0.4755   0.00579   0.00157  -0.0776  0.7008  1.0000  -0.7220   0.0000   0.0000   0.0000   0.4113
   1.000   0.4857   0.00585   0.00157  -0.0774  0.6923  1.0000  -0.7352   0.0000   0.0000   0.0000   0.4074
   1.100   0.4960   0.00591   0.00157  -0.0771  0.6846  1.0000  -0.7485   0.0000   0.0000   0.0000   0.4035
   1.200   0.5065   0.00595   0.00159  -0.0770  0.6763  1.0000  -0.7624   0.0000   0.0000   0.0000   0.3999
   1.300   0.5168   0.00602   0.00160  -0.0768  0.6676  1.0000  -0.7773   0.0000   0.0000   0.0000   0.3964
   1.400   0.5271   0.00608   0.00161  -0.0766  0.6597  1.0000  -0.7924   0.0000   0.0000   0.0000   0.3930
   1.500   0.5377   0.00613   0.00162  -0.0764  0.6514  1.0000  -0.8077   0.0000   0.0000   0.0000   0.3898
   1.600   0.5480   0.00620   0.00164  -0.0762  0.6430  1.0000  -0.8228   0.0000   0.0000   0.0000   0.3867
   1.700   0.5584   0.00626   0.00165  -0.0761  0.6352  1.0000  -0.8381   0.0000   0.0000   0.0000   0.3837
   1.800   0.5689   0.00631   0.00168  -0.0759  0.6266  1.0000  -0.8535   0.0000   0.0000   0.0000   0.3809
   1.900   0.5792   0.00639   0.00169  -0.0757  0.6177  1.0000  -0.8688   0.0000   0.0000   0.0000   0.3781
   2.000   0.5897   0.00645   0.00172  -0.0756  0.6098  1.0000  -0.8853   0.0000   0.0000   0.0000   0.3754
   2.100   0.6002   0.00651   0.00175  -0.0754  0.6013  1.0000  -0.9029   0.0000   0.0000   0.0000   0.3729
   2.200   0.6105   0.00659   0.00177  -0.0752  0.5930  1.0000  -0.9203   0.0000   0.0000   0.0000   0.3704
   2.300   0.6211   0.00665   0.00180  -0.0751  0.5853  1.0000  -0.9380   0.0000   0.0000   0.0000   0.3680
   2.400   0.6316   0.00672   0.00183  -0.0750  0.5764  1.0000  -0.9558   0.0000   0.0000   0.0000   0.3657
   2.500   0.6417   0.00681   0.00187  -0.0748  0.5675  1.0000  -0.9733   0.0000   0.0000   0.0000   0.3634
   2.600   0.6523   0.00687   0.00192  -0.0746  0.5592  1.0000  -0.9913   0.0000   0.0000   0.0000   0.3612
   2.700   0.6627   0.00694   0.00195  -0.0745  0.5502  1.0000  -1.0092   0.0000   0.0000   0.0000   0.3591
   2.900   0.6836   0.00709   0.00203  -0.0742  0.5345  1.0000  -1.0499   0.0000   0.0000   0.0000   0.3551
   3.000   0.6941   0.00717   0.00207  -0.0741  0.5259  1.0000  -1.0706   0.0000   0.0000   0.0000   0.3531
   3.100   0.7041   0.00727   0.00212  -0.0739  0.5173  1.0000  -1.0911   0.0000   0.0000   0.0000   0.3512
   3.200   0.7148   0.00733   0.00216  -0.0738  0.5088  1.0000  -1.1122   0.0000   0.0000   0.0000   0.3495
   3.300   0.7250   0.00742   0.00221  -0.0736  0.4994  1.0000  -1.1330   0.0000   0.0000   0.0000   0.3477
   3.400   0.7352   0.00752   0.00226  -0.0734  0.4908  1.0000  -1.1539   0.0000   0.0000   0.0000   0.3459
   3.500   0.7458   0.00759   0.00231  -0.0733  0.4821  1.0000  -1.1752   0.0000   0.0000   0.0000   0.3443
   3.600   0.7560   0.00769   0.00236  -0.0731  0.4736  1.0000  -1.1990   0.0000   0.0000   0.0000   0.3426
   3.700   0.7663   0.00777   0.00242  -0.0730  0.4661  1.0000  -1.2236   0.0000   0.0000   0.0000   0.3410
   3.800   0.7768   0.00785   0.00247  -0.0729  0.4576  1.0000  -1.2485   0.0000   0.0000   0.0000   0.3395
   3.900   0.7869   0.00796   0.00253  -0.0727  0.4484  1.0000  -1.2730   0.0000   0.0000   0.0000   0.3380
   4.000   0.7972   0.00805   0.00259  -0.0725  0.4399  1.0000  -1.2979   0.0000   0.0000   0.0000   0.3365
   4.100   0.8075   0.00814   0.00268  -0.0724  0.4302  1.0000  -1.3229   0.0000   0.0000   0.0000   0.3351
   4.200   0.8173   0.00827   0.00275  -0.0722  0.4209  1.0000  -1.3475   0.0000   0.0000   0.0000   0.3336
   4.300   0.8279   0.00834   0.00282  -0.0720  0.4127  1.0000  -1.3730   0.0000   0.0000   0.0000   0.3323
   4.400   0.8381   0.00845   0.00289  -0.0719  0.4040  1.0000  -1.3982   0.0000   0.0000   0.0000   0.3309
   4.500   0.8481   0.00857   0.00296  -0.0717  0.3959  1.0000  -1.4309   0.0000   0.0000   0.0000   0.3296
   4.600   0.8585   0.00865   0.00303  -0.0716  0.3876  1.0000  -1.4665   0.0000   0.0000   0.0000   0.3283
   4.700   0.8684   0.00877   0.00311  -0.0714  0.3781  1.0000  -1.5015   0.0000   0.0000   0.0000   0.3271
   4.800   0.8785   0.00889   0.00319  -0.0712  0.3694  1.0000  -1.5369   0.0000   0.0000   0.0000   0.3258
   4.900   0.8887   0.00899   0.00327  -0.0711  0.3599  1.0000  -1.5727   0.0000   0.0000   0.0000   0.3246
   5.000   0.8983   0.00914   0.00336  -0.0708  0.3504  1.0000  -1.6079   0.0000   0.0000   0.0000   0.3234
   5.100   0.9087   0.00923   0.00344  -0.0707  0.3428  1.0000  -1.6445   0.0000   0.0000   0.0000   0.3223
   5.200   0.9188   0.00934   0.00353  -0.0705  0.3344  1.0000  -1.6816   0.0000   0.0000   0.0000   0.3211
   5.300   0.9284   0.00949   0.00363  -0.0703  0.3260  1.0000  -1.7225   0.0000   0.0000   0.0000   0.3200
   5.400   0.9388   0.00958   0.00371  -0.0702  0.3190  1.0000  -1.7651   0.0000   0.0000   0.0000   0.3189
   5.500   0.9488   0.00970   0.00384  -0.0700  0.3108  1.0000  -1.8155   0.0000   0.0000   0.0000   0.3178
   5.700   0.9685   0.00996   0.00404  -0.0696  0.2940  1.0000  -1.9732   0.0000   0.0000   0.0000   0.3157
   5.800   0.9781   0.01012   0.00415  -0.0694  0.2837  1.0000  -2.0530   0.0000   0.0000   0.0000   0.3147
   5.900   0.9877   0.01027   0.00426  -0.0692  0.2740  1.0000  -2.1345   0.0000   0.0000   0.0000   0.3136
   6.000   0.9973   0.01042   0.00437  -0.0690  0.2632  1.0000  -2.2168   0.0000   0.0000   0.0000   0.3126
   6.100   1.0067   0.01060   0.00449  -0.0687  0.2528  1.0000  -2.2990   0.0000   0.0000   0.0000   0.3116
   6.200   1.0165   0.01074   0.00460  -0.0685  0.2432  1.0000  -2.3842   0.0000   0.0000   0.0000   0.3107
   6.300   1.0255   0.01094   0.00474  -0.0682  0.2329  1.0000  -2.4671   0.0000   0.0000   0.0000   0.3097
   6.400   1.0354   0.01106   0.00485  -0.0680  0.2246  1.0000  -2.5546   0.0000   0.0000   0.0000   0.3088
   6.500   1.0447   0.01124   0.00498  -0.0678  0.2150  1.0000  -2.6405   0.0000   0.0000   0.0000   0.3078
   6.600   1.0540   0.01142   0.00512  -0.0675  0.2065  1.0000  -2.7273   0.0000   0.0000   0.0000   0.3069
   6.700   1.0638   0.01155   0.00524  -0.0673  0.1993  1.0000  -2.8171   0.0000   0.0000   0.0000   0.3060
   6.800   1.0730   0.01174   0.00538  -0.0671  0.1909  1.0000  -2.9049   0.0000   0.0000   0.0000   0.3051
   6.900   1.0823   0.01191   0.00555  -0.0668  0.1835  1.0000  -2.9972   0.0000   0.0000   0.0000   0.3042
   7.000   1.0920   0.01205   0.00568  -0.0666  0.1766  1.0000  -3.0900   0.0000   0.0000   0.0000   0.3033
   7.100   1.1010   0.01225   0.00583  -0.0663  0.1687  1.0000  -3.1802   0.0000   0.0000   0.0000   0.3024
   7.200   1.1102   0.01243   0.00598  -0.0661  0.1614  1.0000  -3.2714   0.0000   0.0000   0.0000   0.3016
   7.300   1.1197   0.01257   0.00612  -0.0658  0.1549  1.0000  -3.3653   0.0000   0.0000   0.0000   0.3008
   7.400   1.1285   0.01278   0.00629  -0.0655  0.1470  1.0000  -3.4566   0.0000   0.0000   0.0000   0.2999
   7.500   1.1375   0.01299   0.00645  -0.0652  0.1396  1.0000  -3.5486   0.0000   0.0000   0.0000   0.2990
   7.600   1.1469   0.01314   0.00660  -0.0650  0.1336  1.0000  -3.6439   0.0000   0.0000   0.0000   0.2982
   7.700   1.1555   0.01336   0.00677  -0.0647  0.1259  1.0000  -3.7361   0.0000   0.0000   0.0000   0.2974
   7.800   1.1642   0.01358   0.00696  -0.0643  0.1181  1.0000  -3.8284   0.0000   0.0000   0.0000   0.2966
   7.900   1.1733   0.01375   0.00712  -0.0640  0.1121  1.0000  -3.9241   0.0000   0.0000   0.0000   0.2958
   8.000   1.1819   0.01397   0.00730  -0.0637  0.1054  1.0000  -4.0173   0.0000   0.0000   0.0000   0.2950
   8.100   1.1902   0.01421   0.00751  -0.0633  0.0984  1.0000  -4.1090   0.0000   0.0000   0.0000   0.2941
   8.200   1.1994   0.01437   0.00768  -0.0630  0.0940  1.0000  -4.2053   0.0000   0.0000   0.0000   0.2934
   8.300   1.2079   0.01459   0.00786  -0.0627  0.0881  1.0000  -4.2988   0.0000   0.0000   0.0000   0.2926
   8.400   1.2158   0.01487   0.00809  -0.0623  0.0808  1.0000  -4.3886   0.0000   0.0000   0.0000   0.2917
   8.500   1.2244   0.01507   0.00831  -0.0619  0.0755  1.0000  -4.4813   0.0000   0.0000   0.0000   0.2910
   8.600   1.2326   0.01531   0.00853  -0.0615  0.0695  1.0000  -4.5712   0.0000   0.0000   0.0000   0.2902
   8.700   1.2399   0.01563   0.00878  -0.0610  0.0618  1.0000  -4.6562   0.0000   0.0000   0.0000   0.2893
   8.800   1.2480   0.01586   0.00901  -0.0606  0.0561  1.0000  -4.7429   0.0000   0.0000   0.0000   0.2885
   8.900   1.2546   0.01624   0.00932  -0.0600  0.0476  1.0000  -4.8197   0.0000   0.0000   0.0000   0.2877
   9.000   1.2613   0.01660   0.00963  -0.0594  0.0389  1.0000  -4.8919   0.0000   0.0000   0.0000   0.2868
   9.100   1.2665   0.01710   0.01004  -0.0585  0.0289  1.0000  -4.9507   0.0000   0.0000   0.0000   0.2858
   9.200   1.2712   0.01763   0.01049  -0.0576  0.0210  1.0000  -5.0006   0.0000   0.0000   0.0000   0.2848
   9.300   1.2778   0.01798   0.01085  -0.0570  0.0182  1.0000  -5.0610   0.0000   0.0000   0.0000   0.2839
   9.400   1.2840   0.01836   0.01122  -0.0562  0.0164  1.0000  -5.1232   0.0000   0.0000   0.0000   0.2830
   9.500   1.2899   0.01876   0.01163  -0.0554  0.0148  1.0000  -5.1762   0.0000   0.0000   0.0000   0.2820
   9.600   1.2950   0.01922   0.01214  -0.0545  0.0137  1.0000  -5.2115   0.0000   0.0000   0.0000   0.2810
   9.700   1.3018   0.01952   0.01247  -0.0539  0.0134  1.0000  -5.2957   0.0000   0.0000   0.0000   0.2801
   9.800   1.3083   0.01982   0.01282  -0.0532  0.0131  1.0000  -5.3894   0.0000   0.0000   0.0000   0.2793
   9.900   1.3145   0.02014   0.01318  -0.0525  0.0129  1.0000  -5.4813   0.0000   0.0000   0.0000   0.2784
  10.000   1.3203   0.02047   0.01356  -0.0517  0.0126  1.0000  -5.5719   0.0000   0.0000   0.0000   0.2775
  10.100   1.3258   0.02081   0.01394  -0.0509  0.0124  1.0000  -5.6604   0.0000   0.0000   0.0000   0.2766
  10.200   1.3305   0.02114   0.01432  -0.0499  0.0122  1.0000  -5.7451   0.0000   0.0000   0.0000   0.2755
  10.300   1.3346   0.02149   0.01471  -0.0488  0.0121  1.0000  -5.8269   0.0000   0.0000   0.0000   0.2745
  10.400   1.3383   0.02185   0.01511  -0.0477  0.0119  1.0000  -5.9064   0.0000   0.0000   0.0000   0.2734
  10.500   1.3417   0.02222   0.01552  -0.0466  0.0118  1.0000  -5.9844   0.0000   0.0000   0.0000   0.2723
  10.600   1.3447   0.02261   0.01596  -0.0454  0.0117  1.0000  -6.0607   0.0000   0.0000   0.0000   0.2712
  10.700   1.3477   0.02301   0.01640  -0.0442  0.0116  1.0000  -6.1367   0.0000   0.0000   0.0000   0.2701
  10.800   1.3505   0.02342   0.01689  -0.0431  0.0114  1.0000  -6.2109   0.0000   0.0000   0.0000   0.2691
  10.900   1.3532   0.02385   0.01736  -0.0420  0.0113  1.0000  -6.2865   0.0000   0.0000   0.0000   0.2680
  11.000   1.3558   0.02428   0.01784  -0.0409  0.0112  1.0000  -6.3626   0.0000   0.0000   0.0000   0.2670
  11.100   1.3583   0.02473   0.01833  -0.0398  0.0111  1.0000  -6.4393   0.0000   0.0000   0.0000   0.2660
  11.200   1.3607   0.02520   0.01883  -0.0387  0.0110  1.0000  -6.5158   0.0000   0.0000   0.0000   0.2650
  11.300   1.3629   0.02568   0.01935  -0.0377  0.0108  1.0000  -6.5916   0.0000   0.0000   0.0000   0.2641
  11.400   1.3650   0.02618   0.01989  -0.0367  0.0107  1.0000  -6.6675   0.0000   0.0000   0.0000   0.2631
  11.500   1.3671   0.02669   0.02045  -0.0357  0.0106  1.0000  -6.7429   0.0000   0.0000   0.0000   0.2622
  11.600   1.3688   0.02723   0.02103  -0.0347  0.0105  1.0000  -6.8165   0.0000   0.0000   0.0000   0.2613
  11.700   1.3703   0.02780   0.02163  -0.0337  0.0104  1.0000  -6.8890   0.0000   0.0000   0.0000   0.2604
  11.800   1.3716   0.02839   0.02227  -0.0328  0.0103  1.0000  -6.9595   0.0000   0.0000   0.0000   0.2595
  11.900   1.3726   0.02902   0.02294  -0.0318  0.0102  1.0000  -7.0271   0.0000   0.0000   0.0000   0.2586
  12.000   1.3734   0.02968   0.02364  -0.0309  0.0101  1.0000  -7.0931   0.0000   0.0000   0.0000   0.2578
  12.100   1.3738   0.03037   0.02439  -0.0300  0.0100  1.0000  -7.1556   0.0000   0.0000   0.0000   0.2570
  12.200   1.3741   0.03110   0.02516  -0.0291  0.0100  1.0000  -7.2156   0.0000   0.0000   0.0000   0.2562
  12.300   1.3742   0.03186   0.02598  -0.0283  0.0099  1.0000  -7.2737   0.0000   0.0000   0.0000   0.2554
  12.400   1.3740   0.03267   0.02683  -0.0275  0.0099  1.0000  -7.3294   0.0000   0.0000   0.0000   0.2546
  12.500   1.3738   0.03350   0.02771  -0.0267  0.0098  1.0000  -7.3847   0.0000   0.0000   0.0000   0.2539
  12.600   1.3734   0.03437   0.02864  -0.0260  0.0098  1.0000  -7.4376   0.0000   0.0000   0.0000   0.2532
  12.700   1.3729   0.03527   0.02959  -0.0254  0.0097  1.0000  -7.4897   0.0000   0.0000   0.0000   0.2526
  12.800   1.3721   0.03622   0.03059  -0.0248  0.0097  1.0000  -7.5394   0.0000   0.0000   0.0000   0.2520
  12.900   1.3713   0.03719   0.03162  -0.0242  0.0097  1.0000  -7.5883   0.0000   0.0000   0.0000   0.2514
  13.000   1.3704   0.03822   0.03270  -0.0237  0.0096  1.0000  -7.6352   0.0000   0.0000   0.0000   0.2509
  13.100   1.3694   0.03928   0.03381  -0.0233  0.0096  1.0000  -7.6813   0.0000   0.0000   0.0000   0.2504
  13.200   1.3681   0.04038   0.03497  -0.0229  0.0096  1.0000  -7.7253   0.0000   0.0000   0.0000   0.2499
  13.300   1.3669   0.04152   0.03617  -0.0225  0.0095  1.0000  -7.7684   0.0000   0.0000   0.0000   0.2495
  13.400   1.3655   0.04271   0.03741  -0.0223  0.0095  1.0000  -7.8094   0.0000   0.0000   0.0000   0.2491
  13.500   1.3640   0.04393   0.03868  -0.0220  0.0095  1.0000  -7.8491   0.0000   0.0000   0.0000   0.2488
  13.600   1.3623   0.04519   0.04001  -0.0219  0.0095  1.0000  -7.8865   0.0000   0.0000   0.0000   0.2485
  13.700   1.3605   0.04650   0.04137  -0.0218  0.0094  1.0000  -7.9231   0.0000   0.0000   0.0000   0.2483
  13.800   1.3586   0.04786   0.04279  -0.0217  0.0094  1.0000  -7.9574   0.0000   0.0000   0.0000   0.2481
  13.900   1.3567   0.04925   0.04424  -0.0217  0.0094  1.0000  -7.9908   0.0000   0.0000   0.0000   0.2479
  14.000   1.3546   0.05070   0.04575  -0.0218  0.0094  1.0000  -8.0217   0.0000   0.0000   0.0000   0.2478
  14.100   1.3524   0.05218   0.04729  -0.0219  0.0093  1.0000  -8.0516   0.0000   0.0000   0.0000   0.2477
  14.200   1.3500   0.05372   0.04889  -0.0221  0.0093  1.0000  -8.0788   0.0000   0.0000   0.0000   0.2477
  14.300   1.3476   0.05529   0.05052  -0.0223  0.0093  1.0000  -8.1047   0.0000   0.0000   0.0000   0.2477
  14.400   1.3450   0.05692   0.05222  -0.0226  0.0093  1.0000  -8.1277   0.0000   0.0000   0.0000   0.2477
  14.500   1.3422   0.05859   0.05394  -0.0230  0.0093  1.0000  -8.1491   0.0000   0.0000   0.0000   0.2478
  14.600   1.3392   0.06032   0.05574  -0.0234  0.0092  1.0000  -8.1680   0.0000   0.0000   0.0000   0.2480
  14.700   1.3362   0.06210   0.05758  -0.0238  0.0092  1.0000  -8.1854   0.0000   0.0000   0.0000   0.2482
  14.800   1.3331   0.06394   0.05948  -0.0244  0.0092  1.0000  -8.2004   0.0000   0.0000   0.0000   0.2484
  14.900   1.3298   0.06583   0.06143  -0.0249  0.0092  1.0000  -8.2135   0.0000   0.0000   0.0000   0.2487
  15.000   1.3264   0.06777   0.06344  -0.0256  0.0092  1.0000  -8.2243   0.0000   0.0000   0.0000   0.2490
  15.100   1.3229   0.06978   0.06551  -0.0263  0.0092  1.0000  -8.2327   0.0000   0.0000   0.0000   0.2494
  15.200   1.3193   0.07183   0.06763  -0.0271  0.0091  1.0000  -8.2392   0.0000   0.0000   0.0000   0.2499
  15.300   1.3154   0.07396   0.06982  -0.0279  0.0091  1.0000  -8.2427   0.0000   0.0000   0.0000   0.2504
  15.400   1.3115   0.07612   0.07205  -0.0288  0.0091  1.0000  -8.2447   0.0000   0.0000   0.0000   0.2509
  15.500   1.3073   0.07837   0.07436  -0.0298  0.0091  1.0000  -8.2428   0.0000   0.0000   0.0000   0.2515
  15.600   1.3032   0.08063   0.07669  -0.0308  0.0091  1.0000  -8.2399   0.0000   0.0000   0.0000   0.2522
  15.700   1.2987   0.08301   0.07913  -0.0319  0.0091  1.0000  -8.2330   0.0000   0.0000   0.0000   0.2529
  15.800   1.2944   0.08540   0.08158  -0.0331  0.0091  1.0000  -8.2258   0.0000   0.0000   0.0000   0.2537
  15.900   1.2896   0.08792   0.08420  -0.0343  0.0091  1.0000  -8.2135   0.0000   0.0000   0.0000   0.2546
  16.000   1.2850   0.09044   0.08678  -0.0356  0.0091  1.0000  -8.2015   0.0000   0.0000   0.0000   0.2555
  16.100   1.2801   0.09306   0.08947  -0.0370  0.0091  1.0000  -8.1851   0.0000   0.0000   0.0000   0.2564
  16.200   1.2754   0.09570   0.09217  -0.0384  0.0091  1.0000  -8.1683   0.0000   0.0000   0.0000   0.2575
  16.300   1.2704   0.09843   0.09496  -0.0398  0.0091  1.0000  -8.1477   0.0000   0.0000   0.0000   0.2586
  16.400   1.2655   0.10118   0.09777  -0.0414  0.0091  1.0000  -8.1258   0.0000   0.0000   0.0000   0.2597
  16.500   1.2604   0.10399   0.10065  -0.0429  0.0091  1.0000  -8.1013   0.0000   0.0000   0.0000   0.2609
  16.600   1.2553   0.10687   0.10358  -0.0446  0.0091  1.0000  -8.0742   0.0000   0.0000   0.0000   0.2622
  16.700   1.2502   0.10975   0.10653  -0.0462  0.0091  1.0000  -8.0457   0.0000   0.0000   0.0000   0.2634
  16.800   1.2449   0.11273   0.10957  -0.0480  0.0091  1.0000  -8.0130   0.0000   0.0000   0.0000   0.2648
  16.900   1.2398   0.11569   0.11258  -0.0497  0.0091  1.0000  -7.9807   0.0000   0.0000   0.0000   0.2662
  17.000   1.2344   0.11879   0.11575  -0.0516  0.0091  1.0000  -7.9427   0.0000   0.0000   0.0000   0.2677
  17.100   1.2293   0.12185   0.11886  -0.0534  0.0091  1.0000  -7.9056   0.0000   0.0000   0.0000   0.2692
  17.200   1.2239   0.12503   0.12210  -0.0554  0.0091  1.0000  -7.8631   0.0000   0.0000   0.0000   0.2708
  17.300   1.2186   0.12821   0.12534  -0.0573  0.0091  1.0000  -7.8197   0.0000   0.0000   0.0000   0.2725
  17.400   1.2134   0.13143   0.12861  -0.0593  0.0091  1.0000  -7.7736   0.0000   0.0000   0.0000   0.2741
  17.500   1.2079   0.13475   0.13199  -0.0613  0.0092  1.0000  -7.7222   0.0000   0.0000   0.0000   0.2759
  17.600   1.2028   0.13802   0.13531  -0.0633  0.0092  1.0000  -7.6716   0.0000   0.0000   0.0000   0.2777
  17.700   1.1971   0.14149   0.13884  -0.0655  0.0092  1.0000  -7.6112   0.0000   0.0000   0.0000   0.2796
  17.800   1.1918   0.14489   0.14229  -0.0676  0.0092  1.0000  -7.5517   0.0000   0.0000   0.0000   0.2815
  17.900   1.1861   0.14845   0.14590  -0.0698  0.0092  1.0000  -7.4834   0.0000   0.0000   0.0000   0.2835
  18.000   1.1804   0.15205   0.14952  -0.0721  0.0093  1.0000  -7.4105   0.0000   0.0000   0.0000   0.2856
  18.100   1.1746   0.15571   0.15325  -0.0744  0.0093  1.0000  -7.3313   0.0000   0.0000   0.0000   0.2877
  18.200   1.1678   0.15971   0.15730  -0.0769  0.0093  1.0000  -7.2331   0.0000   0.0000   0.0000   0.2902
  18.300   1.1613   0.16367   0.16132  -0.0793  0.0094  1.0000  -7.1306   0.0000   0.0000   0.0000   0.2926
  18.400   1.1526   0.16841   0.16612  -0.0823  0.0095  1.0000  -6.9832   0.0000   0.0000   0.0000   0.2956
  18.500   1.1420   0.17384   0.17162  -0.0856  0.0096  1.0000  -6.7874   0.0000   0.0000   0.0000   0.2992
  19.000   1.0123   0.24363   0.24150  -0.1164  0.0202  1.0000  -2.4145   0.0000   0.0000   0.0000   0.3432
  19.100   1.0148   0.24542   0.24328  -0.1175  0.0201  1.0000  -2.3936   0.0000   0.0000   0.0000   0.3439
  19.200   1.0180   0.24690   0.24477  -0.1186  0.0196  1.0000  -2.3780   0.0000   0.0000   0.0000   0.3445
  19.300   1.0196   0.24926   0.24711  -0.1202  0.0187  1.0000  -2.3100   0.0000   0.0000   0.0000   0.3459
  19.400   1.0215   0.25134   0.24920  -0.1215  0.0181  1.0000  -2.2720   0.0000   0.0000   0.0000   0.3467
  19.500   1.0237   0.25322   0.25107  -0.1225  0.0177  1.0000  -2.2493   0.0000   0.0000   0.0000   0.3474
  19.600   1.0260   0.25500   0.25285  -0.1235  0.0173  1.0000  -2.2388   0.0000   0.0000   0.0000   0.3479
  19.700   1.0285   0.25670   0.25455  -0.1245  0.0170  1.0000  -2.2422   0.0000   0.0000   0.0000   0.3484
  19.800   1.0310   0.25834   0.25619  -0.1254  0.0167  1.0000  -2.2493   0.0000   0.0000   0.0000   0.3488
  19.900   1.0335   0.25991   0.25776  -0.1263  0.0164  1.0000  -2.2597   0.0000   0.0000   0.0000   0.3492
  20.000   1.0362   0.26140   0.25925  -0.1272  0.0162  1.0000  -2.2730   0.0000   0.0000   0.0000   0.3496


