xflr5 v6.61

 Calculated polar for: SD7037-092-88

 1 1 Reynolds number fixed          Mach number fixed         

 xtrf =   1.000 (top)        1.000 (bottom)
 Mach =   0.000     Re =     0.325 e 6     Ncrit =   9.000

  alpha     CL        CD       CDp       Cm    Top Xtr Bot Xtr   Cpmin    Chinge    XCp    
 ------- -------- --------- --------- -------- ------- ------- -------- --------- ---------
 -10.000  -0.3705   0.10753   0.10459  -0.0335  1.0000  0.0231  -1.8567   0.0000   0.0000   0.0000   0.1520
  -9.900  -0.3694   0.10616   0.10324  -0.0340  1.0000  0.0231  -1.8737   0.0000   0.0000   0.0000   0.1506
  -9.800  -0.3685   0.10480   0.10188  -0.0344  1.0000  0.0231  -1.8913   0.0000   0.0000   0.0000   0.1491
  -9.700  -0.3760   0.10103   0.09815  -0.0351  1.0000  0.0235  -2.0122   0.0000   0.0000   0.0000   0.1494
  -9.600  -0.3775   0.09910   0.09623  -0.0351  1.0000  0.0239  -2.0257   0.0000   0.0000   0.0000   0.1497
  -9.500  -0.3758   0.09792   0.09507  -0.0348  1.0000  0.0241  -1.9964   0.0000   0.0000   0.0000   0.1502
  -9.400  -0.3740   0.09684   0.09399  -0.0346  1.0000  0.0243  -1.9704   0.0000   0.0000   0.0000   0.1504
  -9.300  -0.3724   0.09579   0.09295  -0.0345  1.0000  0.0245  -1.9475   0.0000   0.0000   0.0000   0.1504
  -9.200  -0.3705   0.09479   0.09196  -0.0344  1.0000  0.0247  -1.9226   0.0000   0.0000   0.0000   0.1504
  -9.100  -0.3689   0.09379   0.09097  -0.0343  1.0000  0.0249  -1.9024   0.0000   0.0000   0.0000   0.1503
  -9.000  -0.3674   0.09278   0.08997  -0.0342  1.0000  0.0251  -1.8850   0.0000   0.0000   0.0000   0.1502
  -8.900  -0.3662   0.09176   0.08896  -0.0342  1.0000  0.0254  -1.8715   0.0000   0.0000   0.0000   0.1501
  -8.800  -0.3653   0.09073   0.08794  -0.0342  1.0000  0.0256  -1.8619   0.0000   0.0000   0.0000   0.1500
  -8.700  -0.3648   0.08969   0.08692  -0.0342  1.0000  0.0258  -1.8555   0.0000   0.0000   0.0000   0.1499
  -8.600  -0.3645   0.08864   0.08589  -0.0342  1.0000  0.0261  -1.8522   0.0000   0.0000   0.0000   0.1499
  -8.500  -0.3646   0.08760   0.08486  -0.0342  1.0000  0.0263  -1.8518   0.0000   0.0000   0.0000   0.1501
  -8.400  -0.3652   0.08656   0.08384  -0.0341  1.0000  0.0265  -1.8540   0.0000   0.0000   0.0000   0.1505
  -8.300  -0.3662   0.08553   0.08283  -0.0340  1.0000  0.0268  -1.8587   0.0000   0.0000   0.0000   0.1511
  -8.200  -0.3678   0.08453   0.08185  -0.0339  1.0000  0.0270  -1.8657   0.0000   0.0000   0.0000   0.1521
  -8.100  -0.3700   0.08356   0.08090  -0.0336  1.0000  0.0272  -1.8748   0.0000   0.0000   0.0000   0.1535
  -8.000  -0.3729   0.08263   0.07999  -0.0332  1.0000  0.0274  -1.8860   0.0000   0.0000   0.0000   0.1554
  -7.900  -0.3767   0.08175   0.07914  -0.0327  1.0000  0.0276  -1.8991   0.0000   0.0000   0.0000   0.1579
  -7.800  -0.3813   0.08093   0.07834  -0.0320  1.0000  0.0278  -1.9138   0.0000   0.0000   0.0000   0.1609
  -7.700  -0.3868   0.08018   0.07762  -0.0311  1.0000  0.0279  -1.9300   0.0000   0.0000   0.0000   0.1645
  -7.600  -0.3933   0.07949   0.07695  -0.0301  1.0000  0.0280  -1.9477   0.0000   0.0000   0.0000   0.1686
  -7.500  -0.4007   0.07887   0.07636  -0.0289  1.0000  0.0280  -1.9665   0.0000   0.0000   0.0000   0.1731
  -7.400  -0.4091   0.07832   0.07584  -0.0276  1.0000  0.0281  -1.9866   0.0000   0.0000   0.0000   0.1781
  -7.300  -0.4178   0.07774   0.07530  -0.0263  1.0000  0.0281  -2.0075   0.0000   0.0000   0.0000   0.1827
  -7.200  -0.4244   0.07691   0.07449  -0.0257  1.0000  0.0281  -2.0279   0.0000   0.0000   0.0000   0.1853
  -7.100  -0.4295   0.07588   0.07347  -0.0256  1.0000  0.0282  -2.0482   0.0000   0.0000   0.0000   0.1865
  -7.000  -0.4341   0.07476   0.07238  -0.0256  1.0000  0.0284  -2.0694   0.0000   0.0000   0.0000   0.1872
  -6.900  -0.4382   0.07357   0.07120  -0.0258  1.0000  0.0285  -2.0915   0.0000   0.0000   0.0000   0.1873
  -6.800  -0.4313   0.07116   0.06878  -0.0295  0.9987  0.0291  -2.1180   0.0000   0.0000   0.0000   0.1779
  -6.700  -0.4201   0.06815   0.06574  -0.0347  0.9966  0.0299  -2.1571   0.0000   0.0000   0.0000   0.1636
  -6.600  -0.4072   0.06488   0.06242  -0.0404  0.9944  0.0309  -2.2139   0.0000   0.0000   0.0000   0.1470
  -6.500  -0.3869   0.06163   0.05907  -0.0472  0.9924  0.0327  -2.3012   0.0000   0.0000   0.0000   0.1239
  -6.400  -0.3684   0.05933   0.05663  -0.0521  0.9909  0.0334  -2.3526   0.0000   0.0000   0.0000   0.1043
  -6.300  -0.3595   0.05716   0.05434  -0.0546  0.9884  0.0336  -2.3932   0.0000   0.0000   0.0000   0.0938
  -6.200  -0.3503   0.05498   0.05205  -0.0569  0.9859  0.0337  -2.4301   0.0000   0.0000   0.0000   0.0831
  -6.100  -0.3405   0.05283   0.04978  -0.0592  0.9835  0.0337  -2.4622   0.0000   0.0000   0.0000   0.0717
  -6.000  -0.3457   0.04397   0.04073  -0.0644  0.9801  0.0354  -2.7146   0.0000   0.0000   0.0000   0.0592
  -5.900  -0.3355   0.04236   0.03909  -0.0658  0.9786  0.0363  -2.6610   0.0000   0.0000   0.0000   0.0493
  -5.800  -0.3236   0.04145   0.03819  -0.0669  0.9774  0.0370  -2.5810   0.0000   0.0000   0.0000   0.0387
  -5.700  -0.3110   0.04050   0.03722  -0.0682  0.9763  0.0379  -2.5088   0.0000   0.0000   0.0000   0.0261
  -5.600  -0.2977   0.03942   0.03609  -0.0697  0.9752  0.0389  -2.4476   0.0000   0.0000   0.0000   0.0113
  -5.500  -0.2839   0.03818   0.03477  -0.0713  0.9742  0.0401  -2.3982   0.0000   0.0000   0.0000  -0.0059
  -5.400  -0.2696   0.03682   0.03332  -0.0730  0.9733  0.0415  -2.3583   0.0000   0.0000   0.0000  -0.0257
  -5.300  -0.2545   0.03544   0.03181  -0.0746  0.9725  0.0431  -2.3246   0.0000   0.0000   0.0000  -0.0485
  -5.200  -0.2487   0.03457   0.03085  -0.0740  0.9687  0.0445  -2.3048   0.0000   0.0000   0.0000  -0.0530
  -5.100  -0.2280   0.03771   0.03387  -0.0735  0.9667  0.0494  -2.1683   0.0000   0.0000   0.0000  -0.0778
  -5.000  -0.2158   0.03716   0.03318  -0.0740  0.9643  0.0496  -2.1271   0.0000   0.0000   0.0000  -0.0987
  -4.900  -0.2155   0.03007   0.02576  -0.0765  0.9613  0.0527  -2.2661   0.0000   0.0000   0.0000  -0.1110
  -4.800  -0.2030   0.02908   0.02479  -0.0774  0.9598  0.0542  -2.1832   0.0000   0.0000   0.0000  -0.1374
  -4.700  -0.1895   0.02828   0.02399  -0.0783  0.9585  0.0555  -2.1030   0.0000   0.0000   0.0000  -0.1697
  -4.600  -0.1753   0.02739   0.02303  -0.0793  0.9573  0.0567  -2.0360   0.0000   0.0000   0.0000  -0.2090
  -4.500  -0.1579   0.02231   0.01713  -0.0787  0.9561  0.0314  -2.3937   0.0000   0.0000   0.0000  -0.2568
  -4.400  -0.1443   0.01981   0.01428  -0.0794  0.9551  0.0281  -2.4509   0.0000   0.0000   0.0000  -0.3090
  -4.300  -0.1290   0.01784   0.01188  -0.0796  0.9544  0.0248  -2.5300   0.0000   0.0000   0.0000  -0.3772
  -4.200  -0.1126   0.01740   0.01132  -0.0805  0.9536  0.0241  -2.4531   0.0000   0.0000   0.0000  -0.4758
  -4.100  -0.0961   0.01704   0.01090  -0.0814  0.9529  0.0238  -2.3620   0.0000   0.0000   0.0000  -0.6104
  -4.000  -0.0796   0.01669   0.01050  -0.0824  0.9522  0.0235  -2.3007   0.0000   0.0000   0.0000  -0.7993
  -3.900  -0.0637   0.01631   0.01005  -0.0833  0.9514  0.0233  -2.2423   0.0000   0.0000   0.0000  -1.0742
  -3.800  -0.0482   0.01576   0.00944  -0.0841  0.9506  0.0231  -2.1979   0.0000   0.0000   0.0000  -1.5188
  -3.700  -0.0397   0.01518   0.00881  -0.0835  0.9476  0.0230  -2.1790   0.0000   0.0000   0.0000  -1.8795
  -3.600  -0.0310   0.01469   0.00828  -0.0829  0.9440  0.0230  -2.1537   0.0000   0.0000   0.0000  -2.4576
  -3.500  -0.0194   0.01422   0.00776  -0.0829  0.9414  0.0230  -2.1199   0.0000   0.0000   0.0000  -4.0841
  -3.400  -0.0067   0.01378   0.00729  -0.0831  0.9392  0.0230  -2.0814   0.0000   0.0000   0.0000  -12.2925
  -3.300   0.0065   0.01339   0.00686  -0.0834  0.9373  0.0231  -2.0394   0.0000   0.0000   0.0000  13.3167
  -3.200   0.0195   0.01288   0.00632  -0.0837  0.9354  0.0234  -2.0107   0.0000   0.0000   0.0000   4.5846
  -3.100   0.0327   0.01236   0.00575  -0.0840  0.9336  0.0240  -1.9871   0.0000   0.0000   0.0000   2.8457
  -3.000   0.0464   0.01194   0.00529  -0.0844  0.9319  0.0251  -1.9569   0.0000   0.0000   0.0000   2.0863
  -2.900   0.0604   0.01164   0.00497  -0.0849  0.9303  0.0267  -1.9148   0.0000   0.0000   0.0000   1.6683
  -2.800   0.0744   0.01142   0.00473  -0.0853  0.9287  0.0289  -1.8656   0.0000   0.0000   0.0000   1.4074
  -2.700   0.0882   0.01123   0.00451  -0.0857  0.9270  0.0319  -1.8221   0.0000   0.0000   0.0000   1.2301
  -2.600   0.0972   0.01100   0.00425  -0.0851  0.9234  0.0377  -1.8097   0.0000   0.0000   0.0000   1.1326
  -2.500   0.1058   0.01055   0.00401  -0.0845  0.9193  0.0785  -1.8025   0.0000   0.0000   0.0000   1.0555
  -2.400   0.1158   0.01019   0.00389  -0.0844  0.9158  0.1380  -1.7505   0.0000   0.0000   0.0000   0.9841
  -2.300   0.1268   0.00988   0.00379  -0.0845  0.9128  0.1912  -1.6824   0.0000   0.0000   0.0000   0.9205
  -2.200   0.1382   0.00958   0.00369  -0.0846  0.9101  0.2450  -1.6087   0.0000   0.0000   0.0000   0.8656
  -2.100   0.1499   0.00932   0.00360  -0.0846  0.9075  0.2942  -1.5324   0.0000   0.0000   0.0000   0.8182
  -2.000   0.1613   0.00906   0.00351  -0.0847  0.9051  0.3498  -1.4559   0.0000   0.0000   0.0000   0.7780
  -1.900   0.1727   0.00883   0.00343  -0.0847  0.9028  0.4000  -1.3792   0.0000   0.0000   0.0000   0.7430
  -1.800   0.1816   0.00866   0.00340  -0.0842  0.8987  0.4415  -1.3111   0.0000   0.0000   0.0000   0.7160
  -1.700   0.1908   0.00847   0.00336  -0.0838  0.8943  0.4881  -1.2424   0.0000   0.0000   0.0000   0.6910
  -1.600   0.2002   0.00822   0.00332  -0.0833  0.8902  0.5507  -1.1731   0.0000   0.0000   0.0000   0.6680
  -1.500   0.2093   0.00795   0.00330  -0.0828  0.8866  0.6219  -1.1046   0.0000   0.0000   0.0000   0.6468
  -1.400   0.2183   0.00771   0.00327  -0.0820  0.8833  0.6871  -1.0367   0.0000   0.0000   0.0000   0.6270
  -1.300   0.2274   0.00752   0.00323  -0.0812  0.8803  0.7395  -0.9645   0.0000   0.0000   0.0000   0.6083
  -1.100   0.2438   0.00730   0.00320  -0.0794  0.8715  0.8109  -0.8394   0.0000   0.0000   0.0000   0.5762
  -1.000   0.2518   0.00720   0.00317  -0.0784  0.8666  0.8428  -0.7789   0.0000   0.0000   0.0000   0.5616
  -0.900   0.2600   0.00710   0.00312  -0.0773  0.8623  0.8751  -0.7180   0.0000   0.0000   0.0000   0.5476
  -0.800   0.2700   0.00701   0.00305  -0.0766  0.8585  0.9055  -0.6529   0.0000   0.0000   0.0000   0.5338
  -0.700   0.2838   0.00693   0.00296  -0.0768  0.8552  0.9315  -0.5774   0.0000   0.0000   0.0000   0.5203
  -0.600   0.2997   0.00688   0.00290  -0.0776  0.8506  0.9525  -0.5338   0.0000   0.0000   0.0000   0.5085
  -0.500   0.3177   0.00684   0.00283  -0.0789  0.8455  0.9711  -0.5478   0.0000   0.0000   0.0000   0.4978
  -0.400   0.3382   0.00677   0.00273  -0.0807  0.8408  0.9864  -0.5645   0.0000   0.0000   0.0000   0.4882
  -0.300   0.3587   0.00672   0.00262  -0.0826  0.8363  0.9998  -0.5812   0.0000   0.0000   0.0000   0.4796
  -0.200   0.3687   0.00670   0.00254  -0.0822  0.8313  1.0000  -0.5917   0.0000   0.0000   0.0000   0.4723
  -0.100   0.3778   0.00670   0.00251  -0.0818  0.8247  1.0000  -0.6016   0.0000   0.0000   0.0000   0.4656
   0.000   0.3872   0.00670   0.00247  -0.0814  0.8179  1.0000  -0.6122   0.0000   0.0000   0.0000   0.4592
   0.100   0.3971   0.00670   0.00241  -0.0810  0.8118  1.0000  -0.6237   0.0000   0.0000   0.0000   0.4529
   0.200   0.4073   0.00671   0.00235  -0.0807  0.8061  1.0000  -0.6354   0.0000   0.0000   0.0000   0.4469
   0.300   0.4170   0.00672   0.00234  -0.0803  0.7986  1.0000  -0.6468   0.0000   0.0000   0.0000   0.4414
   0.400   0.4270   0.00673   0.00230  -0.0800  0.7914  1.0000  -0.6584   0.0000   0.0000   0.0000   0.4361
   0.500   0.4372   0.00675   0.00225  -0.0797  0.7848  1.0000  -0.6703   0.0000   0.0000   0.0000   0.4309
   0.600   0.4474   0.00677   0.00223  -0.0794  0.7776  1.0000  -0.6829   0.0000   0.0000   0.0000   0.4260
   0.700   0.4575   0.00679   0.00221  -0.0792  0.7698  1.0000  -0.6959   0.0000   0.0000   0.0000   0.4214
   0.800   0.4678   0.00682   0.00218  -0.0789  0.7624  1.0000  -0.7091   0.0000   0.0000   0.0000   0.4169
   0.900   0.4780   0.00685   0.00217  -0.0786  0.7549  1.0000  -0.7224   0.0000   0.0000   0.0000   0.4127
   1.000   0.4882   0.00689   0.00216  -0.0784  0.7466  1.0000  -0.7356   0.0000   0.0000   0.0000   0.4086
   1.100   0.4985   0.00693   0.00214  -0.0781  0.7388  1.0000  -0.7490   0.0000   0.0000   0.0000   0.4047
   1.200   0.5089   0.00698   0.00215  -0.0779  0.7312  1.0000  -0.7627   0.0000   0.0000   0.0000   0.4010
   1.300   0.5192   0.00702   0.00215  -0.0776  0.7227  1.0000  -0.7776   0.0000   0.0000   0.0000   0.3974
   1.400   0.5294   0.00707   0.00214  -0.0774  0.7145  1.0000  -0.7927   0.0000   0.0000   0.0000   0.3939
   1.500   0.5398   0.00713   0.00215  -0.0772  0.7067  1.0000  -0.8078   0.0000   0.0000   0.0000   0.3906
   1.600   0.5501   0.00718   0.00216  -0.0769  0.6981  1.0000  -0.8229   0.0000   0.0000   0.0000   0.3875
   1.700   0.5603   0.00724   0.00217  -0.0767  0.6898  1.0000  -0.8381   0.0000   0.0000   0.0000   0.3844
   1.800   0.5707   0.00730   0.00218  -0.0765  0.6816  1.0000  -0.8534   0.0000   0.0000   0.0000   0.3815
   1.900   0.5810   0.00736   0.00220  -0.0763  0.6729  1.0000  -0.8687   0.0000   0.0000   0.0000   0.3787
   2.000   0.5912   0.00744   0.00222  -0.0760  0.6646  1.0000  -0.8849   0.0000   0.0000   0.0000   0.3759
   2.100   0.6016   0.00749   0.00224  -0.0758  0.6564  1.0000  -0.9023   0.0000   0.0000   0.0000   0.3733
   2.200   0.6119   0.00756   0.00227  -0.0756  0.6476  1.0000  -0.9198   0.0000   0.0000   0.0000   0.3707
   2.300   0.6221   0.00765   0.00229  -0.0754  0.6392  1.0000  -0.9371   0.0000   0.0000   0.0000   0.3682
   2.400   0.6325   0.00770   0.00233  -0.0752  0.6306  1.0000  -0.9548   0.0000   0.0000   0.0000   0.3659
   2.500   0.6427   0.00777   0.00236  -0.0750  0.6216  1.0000  -0.9724   0.0000   0.0000   0.0000   0.3636
   2.600   0.6528   0.00787   0.00241  -0.0747  0.6135  1.0000  -0.9900   0.0000   0.0000   0.0000   0.3613
   2.700   0.6633   0.00792   0.00245  -0.0746  0.6050  1.0000  -1.0078   0.0000   0.0000   0.0000   0.3592
   2.800   0.6735   0.00801   0.00249  -0.0744  0.5961  1.0000  -1.0275   0.0000   0.0000   0.0000   0.3571
   2.900   0.6836   0.00810   0.00253  -0.0741  0.5878  1.0000  -1.0478   0.0000   0.0000   0.0000   0.3550
   3.000   0.6940   0.00816   0.00257  -0.0740  0.5786  1.0000  -1.0684   0.0000   0.0000   0.0000   0.3531
   3.100   0.7040   0.00826   0.00261  -0.0737  0.5695  1.0000  -1.0888   0.0000   0.0000   0.0000   0.3511
   3.200   0.7143   0.00834   0.00266  -0.0735  0.5611  1.0000  -1.1095   0.0000   0.0000   0.0000   0.3493
   3.300   0.7246   0.00842   0.00271  -0.0734  0.5523  1.0000  -1.1303   0.0000   0.0000   0.0000   0.3475
   3.400   0.7345   0.00853   0.00276  -0.0731  0.5439  1.0000  -1.1509   0.0000   0.0000   0.0000   0.3457
   3.500   0.7449   0.00860   0.00282  -0.0730  0.5354  1.0000  -1.1719   0.0000   0.0000   0.0000   0.3440
   3.600   0.7550   0.00869   0.00288  -0.0728  0.5261  1.0000  -1.1948   0.0000   0.0000   0.0000   0.3423
   3.700   0.7648   0.00881   0.00293  -0.0725  0.5171  1.0000  -1.2186   0.0000   0.0000   0.0000   0.3406
   3.800   0.7751   0.00888   0.00300  -0.0723  0.5079  1.0000  -1.2433   0.0000   0.0000   0.0000   0.3391
   3.900   0.7851   0.00899   0.00306  -0.0721  0.4985  1.0000  -1.2676   0.0000   0.0000   0.0000   0.3375
   4.000   0.7951   0.00910   0.00313  -0.0719  0.4901  1.0000  -1.2921   0.0000   0.0000   0.0000   0.3360
   4.100   0.8053   0.00918   0.00323  -0.0717  0.4813  1.0000  -1.3169   0.0000   0.0000   0.0000   0.3345
   4.200   0.8151   0.00930   0.00330  -0.0715  0.4724  1.0000  -1.3414   0.0000   0.0000   0.0000   0.3330
   4.300   0.8252   0.00940   0.00338  -0.0713  0.4638  1.0000  -1.3663   0.0000   0.0000   0.0000   0.3316
   4.400   0.8352   0.00950   0.00345  -0.0711  0.4541  1.0000  -1.3913   0.0000   0.0000   0.0000   0.3303
   4.500   0.8447   0.00965   0.00353  -0.0708  0.4448  1.0000  -1.4219   0.0000   0.0000   0.0000   0.3289
   4.600   0.8550   0.00973   0.00361  -0.0706  0.4354  1.0000  -1.4571   0.0000   0.0000   0.0000   0.3276
   4.700   0.8647   0.00986   0.00370  -0.0704  0.4258  1.0000  -1.4915   0.0000   0.0000   0.0000   0.3263
   4.800   0.8746   0.00998   0.00379  -0.0701  0.4174  1.0000  -1.5264   0.0000   0.0000   0.0000   0.3250
   4.900   0.8846   0.01008   0.00388  -0.0699  0.4084  1.0000  -1.5619   0.0000   0.0000   0.0000   0.3238
   5.000   0.8941   0.01023   0.00397  -0.0697  0.3994  1.0000  -1.5966   0.0000   0.0000   0.0000   0.3225
   5.100   0.9041   0.01034   0.00407  -0.0695  0.3906  1.0000  -1.6325   0.0000   0.0000   0.0000   0.3213
   5.200   0.9138   0.01047   0.00417  -0.0692  0.3807  1.0000  -1.6680   0.0000   0.0000   0.0000   0.3201
   5.300   0.9232   0.01063   0.00427  -0.0690  0.3715  1.0000  -1.7031   0.0000   0.0000   0.0000   0.3190
   5.400   0.9332   0.01073   0.00437  -0.0688  0.3619  1.0000  -1.7445   0.0000   0.0000   0.0000   0.3179
   5.500   0.9425   0.01090   0.00452  -0.0685  0.3525  1.0000  -1.7850   0.0000   0.0000   0.0000   0.3167
   5.600   0.9523   0.01102   0.00464  -0.0683  0.3443  1.0000  -1.8517   0.0000   0.0000   0.0000   0.3156
   5.700   0.9621   0.01115   0.00475  -0.0680  0.3355  1.0000  -1.9298   0.0000   0.0000   0.0000   0.3146
   5.800   0.9712   0.01134   0.00488  -0.0677  0.3269  1.0000  -2.0068   0.0000   0.0000   0.0000   0.3135
   5.900   0.9811   0.01145   0.00500  -0.0675  0.3189  1.0000  -2.0882   0.0000   0.0000   0.0000   0.3125
   6.000   0.9906   0.01160   0.00512  -0.0673  0.3097  1.0000  -2.1689   0.0000   0.0000   0.0000   0.3114
   6.100   0.9996   0.01179   0.00526  -0.0670  0.3006  1.0000  -2.2487   0.0000   0.0000   0.0000   0.3104
   6.200   1.0094   0.01192   0.00538  -0.0667  0.2910  1.0000  -2.3326   0.0000   0.0000   0.0000   0.3094
   6.300   1.0182   0.01212   0.00552  -0.0664  0.2809  1.0000  -2.4135   0.0000   0.0000   0.0000   0.3084
   6.400   1.0277   0.01227   0.00566  -0.0662  0.2720  1.0000  -2.4984   0.0000   0.0000   0.0000   0.3074
   6.500   1.0369   0.01244   0.00580  -0.0659  0.2625  1.0000  -2.5828   0.0000   0.0000   0.0000   0.3065
   6.600   1.0457   0.01265   0.00595  -0.0655  0.2533  1.0000  -2.6661   0.0000   0.0000   0.0000   0.3055
   6.700   1.0553   0.01279   0.00609  -0.0653  0.2443  1.0000  -2.7539   0.0000   0.0000   0.0000   0.3046
   6.800   1.0639   0.01300   0.00625  -0.0650  0.2348  1.0000  -2.8384   0.0000   0.0000   0.0000   0.3036
   6.900   1.0732   0.01317   0.00640  -0.0647  0.2263  1.0000  -2.9265   0.0000   0.0000   0.0000   0.3028
   7.000   1.0822   0.01335   0.00659  -0.0644  0.2170  1.0000  -3.0176   0.0000   0.0000   0.0000   0.3019
   7.100   1.0905   0.01359   0.00677  -0.0640  0.2078  1.0000  -3.1038   0.0000   0.0000   0.0000   0.3009
   7.200   1.1001   0.01373   0.00692  -0.0638  0.2000  1.0000  -3.1957   0.0000   0.0000   0.0000   0.3001
   7.300   1.1087   0.01395   0.00709  -0.0635  0.1918  1.0000  -3.2844   0.0000   0.0000   0.0000   0.2992
   7.400   1.1173   0.01417   0.00728  -0.0631  0.1844  1.0000  -3.3727   0.0000   0.0000   0.0000   0.2983
   7.500   1.1267   0.01432   0.00745  -0.0628  0.1777  1.0000  -3.4660   0.0000   0.0000   0.0000   0.2975
   7.600   1.1353   0.01453   0.00763  -0.0625  0.1704  1.0000  -3.5562   0.0000   0.0000   0.0000   0.2967
   7.700   1.1434   0.01479   0.00784  -0.0621  0.1629  1.0000  -3.6440   0.0000   0.0000   0.0000   0.2958
   7.800   1.1528   0.01493   0.00801  -0.0618  0.1575  1.0000  -3.7393   0.0000   0.0000   0.0000   0.2950
   7.900   1.1615   0.01513   0.00820  -0.0615  0.1506  1.0000  -3.8315   0.0000   0.0000   0.0000   0.2942
   8.000   1.1692   0.01541   0.00842  -0.0611  0.1426  1.0000  -3.9197   0.0000   0.0000   0.0000   0.2933
   8.100   1.1782   0.01559   0.00860  -0.0608  0.1361  1.0000  -4.0145   0.0000   0.0000   0.0000   0.2925
   8.200   1.1865   0.01581   0.00880  -0.0604  0.1282  1.0000  -4.1067   0.0000   0.0000   0.0000   0.2917
   8.300   1.1939   0.01612   0.00905  -0.0599  0.1199  1.0000  -4.1939   0.0000   0.0000   0.0000   0.2909
   8.400   1.2028   0.01629   0.00923  -0.0596  0.1144  1.0000  -4.2895   0.0000   0.0000   0.0000   0.2901
   8.500   1.2110   0.01653   0.00945  -0.0592  0.1076  1.0000  -4.3815   0.0000   0.0000   0.0000   0.2893
   8.600   1.2182   0.01684   0.00974  -0.0587  0.1004  1.0000  -4.4677   0.0000   0.0000   0.0000   0.2885
   8.700   1.2265   0.01705   0.00996  -0.0583  0.0952  1.0000  -4.5597   0.0000   0.0000   0.0000   0.2877
   8.800   1.2346   0.01728   0.01019  -0.0579  0.0891  1.0000  -4.6504   0.0000   0.0000   0.0000   0.2869
   8.900   1.2417   0.01759   0.01045  -0.0574  0.0825  1.0000  -4.7358   0.0000   0.0000   0.0000   0.2861
   9.000   1.2492   0.01786   0.01072  -0.0569  0.0768  1.0000  -4.8218   0.0000   0.0000   0.0000   0.2853
   9.100   1.2568   0.01812   0.01098  -0.0564  0.0707  1.0000  -4.9072   0.0000   0.0000   0.0000   0.2845
   9.200   1.2629   0.01851   0.01129  -0.0558  0.0626  1.0000  -4.9829   0.0000   0.0000   0.0000   0.2836
   9.300   1.2697   0.01884   0.01161  -0.0552  0.0549  1.0000  -5.0570   0.0000   0.0000   0.0000   0.2828
   9.400   1.2739   0.01938   0.01205  -0.0543  0.0439  1.0000  -5.1125   0.0000   0.0000   0.0000   0.2818
   9.500   1.2777   0.01996   0.01254  -0.0533  0.0342  1.0000  -5.1558   0.0000   0.0000   0.0000   0.2807
   9.600   1.2815   0.02053   0.01310  -0.0522  0.0276  1.0000  -5.1860   0.0000   0.0000   0.0000   0.2796
   9.700   1.2854   0.02105   0.01360  -0.0512  0.0243  1.0000  -5.2282   0.0000   0.0000   0.0000   0.2786
   9.800   1.2880   0.02167   0.01422  -0.0499  0.0217  1.0000  -5.2541   0.0000   0.0000   0.0000   0.2774
   9.900   1.2899   0.02224   0.01485  -0.0485  0.0203  1.0000  -5.2757   0.0000   0.0000   0.0000   0.2762
  10.000   1.2946   0.02258   0.01524  -0.0476  0.0198  1.0000  -5.3489   0.0000   0.0000   0.0000   0.2751
  10.100   1.2986   0.02295   0.01565  -0.0465  0.0192  1.0000  -5.4231   0.0000   0.0000   0.0000   0.2741
  10.200   1.3023   0.02334   0.01609  -0.0454  0.0187  1.0000  -5.4953   0.0000   0.0000   0.0000   0.2730
  10.300   1.3056   0.02375   0.01655  -0.0443  0.0182  1.0000  -5.5660   0.0000   0.0000   0.0000   0.2719
  10.400   1.3086   0.02418   0.01702  -0.0432  0.0178  1.0000  -5.6353   0.0000   0.0000   0.0000   0.2708
  10.500   1.3114   0.02463   0.01751  -0.0421  0.0174  1.0000  -5.7044   0.0000   0.0000   0.0000   0.2697
  10.600   1.3140   0.02509   0.01802  -0.0409  0.0170  1.0000  -5.7726   0.0000   0.0000   0.0000   0.2687
  10.700   1.3164   0.02557   0.01854  -0.0398  0.0167  1.0000  -5.8403   0.0000   0.0000   0.0000   0.2676
  10.800   1.3188   0.02606   0.01908  -0.0388  0.0165  1.0000  -5.9075   0.0000   0.0000   0.0000   0.2666
  10.900   1.3208   0.02659   0.01965  -0.0377  0.0162  1.0000  -5.9729   0.0000   0.0000   0.0000   0.2656
  11.000   1.3225   0.02714   0.02024  -0.0366  0.0160  1.0000  -6.0362   0.0000   0.0000   0.0000   0.2646
  11.100   1.3240   0.02772   0.02090  -0.0355  0.0158  1.0000  -6.0956   0.0000   0.0000   0.0000   0.2636
  11.200   1.3250   0.02833   0.02156  -0.0345  0.0156  1.0000  -6.1534   0.0000   0.0000   0.0000   0.2626
  11.300   1.3257   0.02898   0.02226  -0.0334  0.0155  1.0000  -6.2091   0.0000   0.0000   0.0000   0.2617
  11.400   1.3263   0.02967   0.02299  -0.0324  0.0153  1.0000  -6.2631   0.0000   0.0000   0.0000   0.2607
  11.500   1.3265   0.03039   0.02376  -0.0314  0.0152  1.0000  -6.3147   0.0000   0.0000   0.0000   0.2598
  11.600   1.3267   0.03114   0.02456  -0.0304  0.0151  1.0000  -6.3648   0.0000   0.0000   0.0000   0.2589
  11.700   1.3266   0.03193   0.02540  -0.0294  0.0150  1.0000  -6.4131   0.0000   0.0000   0.0000   0.2580
  11.800   1.3264   0.03275   0.02627  -0.0285  0.0149  1.0000  -6.4596   0.0000   0.0000   0.0000   0.2572
  11.900   1.3262   0.03360   0.02718  -0.0277  0.0148  1.0000  -6.5052   0.0000   0.0000   0.0000   0.2564
  12.000   1.3258   0.03449   0.02812  -0.0269  0.0147  1.0000  -6.5493   0.0000   0.0000   0.0000   0.2556
  12.100   1.3254   0.03541   0.02910  -0.0261  0.0146  1.0000  -6.5925   0.0000   0.0000   0.0000   0.2549
  12.200   1.3248   0.03638   0.03013  -0.0254  0.0145  1.0000  -6.6337   0.0000   0.0000   0.0000   0.2542
  12.300   1.3240   0.03739   0.03119  -0.0247  0.0144  1.0000  -6.6730   0.0000   0.0000   0.0000   0.2535
  12.400   1.3231   0.03845   0.03231  -0.0240  0.0143  1.0000  -6.7102   0.0000   0.0000   0.0000   0.2528
  12.500   1.3220   0.03956   0.03349  -0.0234  0.0142  1.0000  -6.7450   0.0000   0.0000   0.0000   0.2522
  12.600   1.3208   0.04074   0.03472  -0.0229  0.0141  1.0000  -6.7771   0.0000   0.0000   0.0000   0.2517
  12.700   1.3192   0.04198   0.03603  -0.0224  0.0140  1.0000  -6.8056   0.0000   0.0000   0.0000   0.2511
  12.800   1.3176   0.04328   0.03741  -0.0219  0.0139  1.0000  -6.8308   0.0000   0.0000   0.0000   0.2506
  12.900   1.3156   0.04466   0.03887  -0.0215  0.0138  1.0000  -6.8514   0.0000   0.0000   0.0000   0.2502
  13.000   1.3133   0.04612   0.04041  -0.0211  0.0137  1.0000  -6.8674   0.0000   0.0000   0.0000   0.2497
  13.100   1.3108   0.04765   0.04201  -0.0208  0.0136  1.0000  -6.8805   0.0000   0.0000   0.0000   0.2493
  13.200   1.3111   0.04868   0.04310  -0.0206  0.0136  1.0000  -6.9337   0.0000   0.0000   0.0000   0.2490
  13.300   1.3113   0.04975   0.04424  -0.0205  0.0136  1.0000  -6.9852   0.0000   0.0000   0.0000   0.2488
  13.400   1.3112   0.05089   0.04545  -0.0204  0.0135  1.0000  -7.0331   0.0000   0.0000   0.0000   0.2485
  13.500   1.3109   0.05208   0.04670  -0.0204  0.0134  1.0000  -7.0785   0.0000   0.0000   0.0000   0.2483
  13.600   1.3102   0.05334   0.04802  -0.0204  0.0134  1.0000  -7.1200   0.0000   0.0000   0.0000   0.2482
  13.700   1.3092   0.05466   0.04941  -0.0205  0.0134  1.0000  -7.1579   0.0000   0.0000   0.0000   0.2480
  13.800   1.3079   0.05605   0.05087  -0.0206  0.0133  1.0000  -7.1913   0.0000   0.0000   0.0000   0.2480
  13.900   1.3062   0.05752   0.05241  -0.0208  0.0133  1.0000  -7.2197   0.0000   0.0000   0.0000   0.2479
  14.000   1.3041   0.05907   0.05403  -0.0210  0.0133  1.0000  -7.2432   0.0000   0.0000   0.0000   0.2479
  14.100   1.3016   0.06070   0.05574  -0.0213  0.0133  1.0000  -7.2620   0.0000   0.0000   0.0000   0.2480
  14.200   1.2990   0.06239   0.05750  -0.0216  0.0132  1.0000  -7.2786   0.0000   0.0000   0.0000   0.2481
  14.300   1.2960   0.06415   0.05935  -0.0221  0.0132  1.0000  -7.2917   0.0000   0.0000   0.0000   0.2483
  14.400   1.2928   0.06597   0.06124  -0.0225  0.0132  1.0000  -7.3025   0.0000   0.0000   0.0000   0.2485
  14.500   1.2893   0.06788   0.06322  -0.0231  0.0132  1.0000  -7.3095   0.0000   0.0000   0.0000   0.2488
  14.600   1.2857   0.06984   0.06526  -0.0238  0.0132  1.0000  -7.3142   0.0000   0.0000   0.0000   0.2492
  14.700   1.2817   0.07189   0.06739  -0.0245  0.0132  1.0000  -7.3149   0.0000   0.0000   0.0000   0.2496
  14.800   1.2776   0.07401   0.06958  -0.0253  0.0132  1.0000  -7.3132   0.0000   0.0000   0.0000   0.2501
  14.900   1.2731   0.07621   0.07186  -0.0262  0.0132  1.0000  -7.3073   0.0000   0.0000   0.0000   0.2507
  15.000   1.2684   0.07848   0.07421  -0.0272  0.0132  1.0000  -7.2986   0.0000   0.0000   0.0000   0.2514


