xflr5 v6.61

 Calculated polar for: SD7037-092-88

 1 1 Reynolds number fixed          Mach number fixed         

 xtrf =   1.000 (top)        1.000 (bottom)
 Mach =   0.000     Re =     0.375 e 6     Ncrit =   9.000

  alpha     CL        CD       CDp       Cm    Top Xtr Bot Xtr   Cpmin    Chinge    XCp    
 ------- -------- --------- --------- -------- ------- ------- -------- --------- ---------
 -10.000  -0.3681   0.10633   0.10358  -0.0299  1.0000  0.0214  -1.6884   0.0000   0.0000   0.0000   0.1613
  -9.900  -0.3677   0.10499   0.10225  -0.0306  1.0000  0.0218  -1.7210   0.0000   0.0000   0.0000   0.1592
  -9.800  -0.3673   0.10365   0.10092  -0.0315  1.0000  0.0221  -1.7607   0.0000   0.0000   0.0000   0.1568
  -9.700  -0.3665   0.10236   0.09965  -0.0324  1.0000  0.0224  -1.7992   0.0000   0.0000   0.0000   0.1543
  -9.600  -0.3656   0.10113   0.09843  -0.0332  1.0000  0.0226  -1.8310   0.0000   0.0000   0.0000   0.1520
  -9.500  -0.3644   0.09996   0.09726  -0.0337  1.0000  0.0227  -1.8499   0.0000   0.0000   0.0000   0.1502
  -9.400  -0.3634   0.09874   0.09606  -0.0342  1.0000  0.0228  -1.8684   0.0000   0.0000   0.0000   0.1486
  -9.300  -0.3625   0.09749   0.09483  -0.0347  1.0000  0.0229  -1.8871   0.0000   0.0000   0.0000   0.1471
  -9.200  -0.3619   0.09622   0.09357  -0.0352  1.0000  0.0229  -1.9062   0.0000   0.0000   0.0000   0.1458
  -9.100  -0.3615   0.09494   0.09230  -0.0356  1.0000  0.0230  -1.9258   0.0000   0.0000   0.0000   0.1445
  -9.000  -0.3612   0.09365   0.09102  -0.0361  1.0000  0.0230  -1.9459   0.0000   0.0000   0.0000   0.1434
  -8.900  -0.3612   0.09235   0.08974  -0.0364  1.0000  0.0230  -1.9667   0.0000   0.0000   0.0000   0.1424
  -8.800  -0.3615   0.09107   0.08847  -0.0368  1.0000  0.0230  -1.9882   0.0000   0.0000   0.0000   0.1416
  -8.700  -0.3620   0.08978   0.08720  -0.0371  1.0000  0.0230  -2.0102   0.0000   0.0000   0.0000   0.1410
  -8.600  -0.3629   0.08852   0.08596  -0.0373  1.0000  0.0231  -2.0329   0.0000   0.0000   0.0000   0.1407
  -8.500  -0.3643   0.08729   0.08474  -0.0375  1.0000  0.0231  -2.0562   0.0000   0.0000   0.0000   0.1408
  -8.400  -0.3662   0.08610   0.08357  -0.0375  1.0000  0.0231  -2.0800   0.0000   0.0000   0.0000   0.1413
  -8.300  -0.3688   0.08496   0.08245  -0.0374  1.0000  0.0231  -2.1042   0.0000   0.0000   0.0000   0.1424
  -8.200  -0.3721   0.08388   0.08140  -0.0372  1.0000  0.0231  -2.1287   0.0000   0.0000   0.0000   0.1442
  -8.100  -0.3763   0.08289   0.08043  -0.0367  1.0000  0.0231  -2.1534   0.0000   0.0000   0.0000   0.1467
  -8.000  -0.3815   0.08199   0.07956  -0.0361  1.0000  0.0231  -2.1780   0.0000   0.0000   0.0000   0.1499
  -7.900  -0.3877   0.08119   0.07878  -0.0352  1.0000  0.0231  -2.2026   0.0000   0.0000   0.0000   0.1537
  -7.800  -0.3948   0.08048   0.07810  -0.0342  1.0000  0.0231  -2.2270   0.0000   0.0000   0.0000   0.1582
  -7.700  -0.4029   0.07985   0.07749  -0.0330  1.0000  0.0231  -2.2513   0.0000   0.0000   0.0000   0.1630
  -7.600  -0.4110   0.07918   0.07685  -0.0320  1.0000  0.0231  -2.2763   0.0000   0.0000   0.0000   0.1674
  -7.500  -0.4169   0.07815   0.07584  -0.0317  1.0000  0.0231  -2.3049   0.0000   0.0000   0.0000   0.1692
  -7.300  -0.4358   0.07356   0.07130  -0.0332  1.0000  0.0234  -2.4801   0.0000   0.0000   0.0000   0.1696
  -7.200  -0.4379   0.06850   0.06623  -0.0382  0.9982  0.0240  -2.6015   0.0000   0.0000   0.0000   0.1584
  -7.100  -0.4309   0.06637   0.06409  -0.0407  0.9967  0.0243  -2.5793   0.0000   0.0000   0.0000   0.1512
  -7.000  -0.4224   0.06503   0.06274  -0.0423  0.9953  0.0246  -2.5214   0.0000   0.0000   0.0000   0.1455
  -6.900  -0.4130   0.06350   0.06118  -0.0445  0.9938  0.0250  -2.4741   0.0000   0.0000   0.0000   0.1381
  -6.800  -0.4028   0.06177   0.05943  -0.0471  0.9925  0.0254  -2.4371   0.0000   0.0000   0.0000   0.1290
  -6.700  -0.3919   0.05996   0.05759  -0.0498  0.9913  0.0258  -2.4054   0.0000   0.0000   0.0000   0.1187
  -6.600  -0.3827   0.05812   0.05572  -0.0522  0.9897  0.0263  -2.3874   0.0000   0.0000   0.0000   0.1093
  -6.500  -0.3742   0.05618   0.05375  -0.0545  0.9874  0.0268  -2.3811   0.0000   0.0000   0.0000   0.1001
  -6.400  -0.3647   0.05407   0.05159  -0.0571  0.9852  0.0274  -2.3829   0.0000   0.0000   0.0000   0.0892
  -6.300  -0.3541   0.05179   0.04922  -0.0598  0.9830  0.0282  -2.3941   0.0000   0.0000   0.0000   0.0768
  -6.200  -0.3426   0.04936   0.04670  -0.0627  0.9810  0.0292  -2.4190   0.0000   0.0000   0.0000   0.0626
  -6.100  -0.3292   0.04679   0.04401  -0.0656  0.9792  0.0308  -2.4672   0.0000   0.0000   0.0000   0.0460
  -6.000  -0.3068   0.04707   0.04411  -0.0672  0.9781  0.0334  -2.4565   0.0000   0.0000   0.0000   0.0259
  -5.900  -0.2930   0.04553   0.04240  -0.0694  0.9766  0.0336  -2.4698   0.0000   0.0000   0.0000   0.0080
  -5.800  -0.2800   0.04373   0.04046  -0.0715  0.9754  0.0337  -2.4809   0.0000   0.0000   0.0000  -0.0105
  -5.700  -0.2799   0.03519   0.03157  -0.0762  0.9735  0.0358  -2.7205   0.0000   0.0000   0.0000  -0.0279
  -5.600  -0.2671   0.03389   0.03025  -0.0777  0.9728  0.0367  -2.6507   0.0000   0.0000   0.0000  -0.0464
  -5.500  -0.2587   0.03316   0.02951  -0.0777  0.9706  0.0373  -2.5844   0.0000   0.0000   0.0000  -0.0559
  -5.400  -0.2507   0.03244   0.02877  -0.0776  0.9678  0.0380  -2.5235   0.0000   0.0000   0.0000  -0.0654
  -5.300  -0.2403   0.03163   0.02792  -0.0781  0.9655  0.0388  -2.4607   0.0000   0.0000   0.0000  -0.0806
  -5.200  -0.2287   0.03075   0.02697  -0.0787  0.9635  0.0397  -2.4008   0.0000   0.0000   0.0000  -0.1001
  -5.100  -0.2162   0.02986   0.02600  -0.0795  0.9619  0.0409  -2.3411   0.0000   0.0000   0.0000  -0.1238
  -5.000  -0.2027   0.02918   0.02525  -0.0803  0.9604  0.0430  -2.2702   0.0000   0.0000   0.0000  -0.1527
  -4.900  -0.1874   0.02890   0.02488  -0.0811  0.9592  0.0461  -2.1952   0.0000   0.0000   0.0000  -0.1893
  -4.700  -0.1600   0.02599   0.02148  -0.0834  0.9566  0.0522  -2.1447   0.0000   0.0000   0.0000  -0.2790
  -4.600  -0.1465   0.02464   0.02008  -0.0845  0.9557  0.0536  -2.0804   0.0000   0.0000   0.0000  -0.3348
  -4.500  -0.1305   0.01825   0.01264  -0.0832  0.9548  0.0241  -2.5895   0.0000   0.0000   0.0000  -0.3975
  -4.400  -0.1147   0.01815   0.01250  -0.0839  0.9540  0.0236  -2.4850   0.0000   0.0000   0.0000  -0.4932
  -4.300  -0.0990   0.01806   0.01238  -0.0847  0.9531  0.0232  -2.3765   0.0000   0.0000   0.0000  -0.6187
  -4.200  -0.0854   0.01644   0.01062  -0.0853  0.9522  0.0224  -2.3612   0.0000   0.0000   0.0000  -0.7632
  -4.100  -0.0710   0.01556   0.00964  -0.0859  0.9513  0.0221  -2.3298   0.0000   0.0000   0.0000  -0.9765
  -4.000  -0.0567   0.01486   0.00884  -0.0865  0.9504  0.0218  -2.3018   0.0000   0.0000   0.0000  -1.2965
  -3.900  -0.0497   0.01441   0.00835  -0.0856  0.9469  0.0216  -2.2790   0.0000   0.0000   0.0000  -1.4958
  -3.800  -0.0402   0.01395   0.00784  -0.0851  0.9438  0.0215  -2.2502   0.0000   0.0000   0.0000  -1.8954
  -3.700  -0.0291   0.01351   0.00734  -0.0850  0.9412  0.0214  -2.2165   0.0000   0.0000   0.0000  -2.7101
  -3.600  -0.0173   0.01309   0.00688  -0.0850  0.9389  0.0214  -2.1793   0.0000   0.0000   0.0000  -4.7331
  -3.500  -0.0050   0.01270   0.00646  -0.0851  0.9368  0.0214  -2.1393   0.0000   0.0000   0.0000  -16.8087
  -3.400   0.0076   0.01234   0.00606  -0.0853  0.9349  0.0215  -2.0968   0.0000   0.0000   0.0000  11.5272
  -3.300   0.0205   0.01201   0.00569  -0.0855  0.9330  0.0216  -2.0525   0.0000   0.0000   0.0000   4.4611
  -3.200   0.0334   0.01171   0.00535  -0.0857  0.9312  0.0219  -2.0070   0.0000   0.0000   0.0000   2.8409
  -3.100   0.0462   0.01144   0.00504  -0.0859  0.9294  0.0223  -1.9608   0.0000   0.0000   0.0000   2.1276
  -3.000   0.0588   0.01121   0.00478  -0.0860  0.9276  0.0227  -1.9139   0.0000   0.0000   0.0000   1.7280
  -2.900   0.0695   0.01105   0.00459  -0.0858  0.9250  0.0231  -1.8693   0.0000   0.0000   0.0000   1.4970
  -2.800   0.0781   0.01070   0.00419  -0.0852  0.9211  0.0250  -1.8630   0.0000   0.0000   0.0000   1.3504
  -2.700   0.0883   0.01048   0.00396  -0.0848  0.9176  0.0278  -1.8322   0.0000   0.0000   0.0000   1.2192
  -2.600   0.0992   0.01031   0.00377  -0.0847  0.9145  0.0315  -1.7940   0.0000   0.0000   0.0000   1.1099
  -2.500   0.1103   0.00998   0.00351  -0.0845  0.9116  0.0508  -1.7795   0.0000   0.0000   0.0000   1.0215
  -2.400   0.1210   0.00957   0.00334  -0.0844  0.9088  0.1092  -1.7346   0.0000   0.0000   0.0000   0.9529
  -2.300   0.1319   0.00928   0.00323  -0.0844  0.9063  0.1561  -1.6683   0.0000   0.0000   0.0000   0.8943
  -2.200   0.1428   0.00901   0.00314  -0.0844  0.9038  0.2076  -1.5966   0.0000   0.0000   0.0000   0.8446
  -2.100   0.1530   0.00879   0.00308  -0.0842  0.9007  0.2541  -1.5252   0.0000   0.0000   0.0000   0.8036
  -2.000   0.1623   0.00857   0.00303  -0.0839  0.8966  0.3025  -1.4564   0.0000   0.0000   0.0000   0.7699
  -1.900   0.1721   0.00835   0.00297  -0.0837  0.8925  0.3506  -1.3853   0.0000   0.0000   0.0000   0.7386
  -1.800   0.1823   0.00816   0.00291  -0.0834  0.8887  0.3919  -1.3127   0.0000   0.0000   0.0000   0.7098
  -1.700   0.1927   0.00798   0.00284  -0.0832  0.8852  0.4342  -1.2397   0.0000   0.0000   0.0000   0.6836
  -1.600   0.2031   0.00778   0.00277  -0.0830  0.8821  0.4801  -1.1668   0.0000   0.0000   0.0000   0.6600
  -1.500   0.2134   0.00755   0.00272  -0.0827  0.8790  0.5384  -1.0947   0.0000   0.0000   0.0000   0.6389
  -1.400   0.2222   0.00733   0.00273  -0.0822  0.8747  0.6062  -1.0276   0.0000   0.0000   0.0000   0.6209
  -1.300   0.2305   0.00711   0.00273  -0.0814  0.8698  0.6698  -0.9587   0.0000   0.0000   0.0000   0.6041
  -1.200   0.2391   0.00693   0.00272  -0.0807  0.8651  0.7233  -0.8945   0.0000   0.0000   0.0000   0.5881
  -1.100   0.2479   0.00679   0.00269  -0.0799  0.8609  0.7645  -0.8304   0.0000   0.0000   0.0000   0.5727
  -1.000   0.2571   0.00668   0.00265  -0.0792  0.8571  0.7982  -0.7659   0.0000   0.0000   0.0000   0.5582
  -0.900   0.2659   0.00659   0.00262  -0.0783  0.8530  0.8300  -0.7037   0.0000   0.0000   0.0000   0.5447
  -0.800   0.2736   0.00651   0.00262  -0.0773  0.8474  0.8611  -0.6458   0.0000   0.0000   0.0000   0.5325
  -0.700   0.2819   0.00643   0.00259  -0.0763  0.8419  0.8907  -0.5868   0.0000   0.0000   0.0000   0.5206
  -0.600   0.2923   0.00637   0.00253  -0.0758  0.8370  0.9163  -0.5300   0.0000   0.0000   0.0000   0.5090
  -0.500   0.3059   0.00632   0.00246  -0.0760  0.8327  0.9375  -0.5417   0.0000   0.0000   0.0000   0.4981
  -0.400   0.3220   0.00629   0.00239  -0.0769  0.8279  0.9566  -0.5554   0.0000   0.0000   0.0000   0.4882
  -0.300   0.3399   0.00625   0.00234  -0.0782  0.8219  0.9745  -0.5705   0.0000   0.0000   0.0000   0.4794
  -0.200   0.3594   0.00621   0.00226  -0.0799  0.8161  0.9898  -0.5866   0.0000   0.0000   0.0000   0.4715
  -0.100   0.3772   0.00619   0.00217  -0.0812  0.8105  1.0000  -0.6019   0.0000   0.0000   0.0000   0.4645
   0.000   0.3869   0.00620   0.00213  -0.0809  0.8045  1.0000  -0.6126   0.0000   0.0000   0.0000   0.4580
   0.100   0.3965   0.00621   0.00211  -0.0805  0.7972  1.0000  -0.6239   0.0000   0.0000   0.0000   0.4519
   0.200   0.4063   0.00622   0.00207  -0.0801  0.7899  1.0000  -0.6353   0.0000   0.0000   0.0000   0.4461
   0.300   0.4163   0.00625   0.00202  -0.0798  0.7833  1.0000  -0.6470   0.0000   0.0000   0.0000   0.4404
   0.400   0.4263   0.00627   0.00201  -0.0795  0.7759  1.0000  -0.6586   0.0000   0.0000   0.0000   0.4352
   0.500   0.4364   0.00629   0.00199  -0.0792  0.7682  1.0000  -0.6703   0.0000   0.0000   0.0000   0.4301
   0.600   0.4465   0.00633   0.00195  -0.0789  0.7609  1.0000  -0.6829   0.0000   0.0000   0.0000   0.4253
   0.700   0.4567   0.00636   0.00195  -0.0787  0.7532  1.0000  -0.6960   0.0000   0.0000   0.0000   0.4207
   0.800   0.4669   0.00640   0.00194  -0.0785  0.7449  1.0000  -0.7091   0.0000   0.0000   0.0000   0.4163
   0.900   0.4771   0.00645   0.00192  -0.0782  0.7372  1.0000  -0.7224   0.0000   0.0000   0.0000   0.4120
   1.000   0.4875   0.00649   0.00192  -0.0780  0.7294  1.0000  -0.7357   0.0000   0.0000   0.0000   0.4080
   1.100   0.4978   0.00653   0.00192  -0.0777  0.7210  1.0000  -0.7490   0.0000   0.0000   0.0000   0.4042
   1.200   0.5080   0.00659   0.00192  -0.0775  0.7129  1.0000  -0.7627   0.0000   0.0000   0.0000   0.4005
   1.300   0.5184   0.00664   0.00193  -0.0773  0.7050  1.0000  -0.7777   0.0000   0.0000   0.0000   0.3969
   1.400   0.5287   0.00669   0.00193  -0.0771  0.6964  1.0000  -0.7927   0.0000   0.0000   0.0000   0.3935
   1.500   0.5389   0.00676   0.00194  -0.0768  0.6883  1.0000  -0.8078   0.0000   0.0000   0.0000   0.3902
   1.600   0.5494   0.00681   0.00195  -0.0766  0.6801  1.0000  -0.8230   0.0000   0.0000   0.0000   0.3871
   1.700   0.5597   0.00686   0.00197  -0.0764  0.6714  1.0000  -0.8382   0.0000   0.0000   0.0000   0.3841
   1.800   0.5699   0.00695   0.00198  -0.0762  0.6632  1.0000  -0.8534   0.0000   0.0000   0.0000   0.3811
   1.900   0.5804   0.00699   0.00200  -0.0760  0.6550  1.0000  -0.8688   0.0000   0.0000   0.0000   0.3784
   2.000   0.5907   0.00706   0.00202  -0.0758  0.6464  1.0000  -0.8852   0.0000   0.0000   0.0000   0.3757
   2.100   0.6009   0.00715   0.00204  -0.0756  0.6381  1.0000  -0.9024   0.0000   0.0000   0.0000   0.3730
   2.200   0.6114   0.00719   0.00207  -0.0755  0.6295  1.0000  -0.9200   0.0000   0.0000   0.0000   0.3705
   2.300   0.6217   0.00727   0.00210  -0.0752  0.6206  1.0000  -0.9375   0.0000   0.0000   0.0000   0.3681
   2.400   0.6319   0.00735   0.00213  -0.0750  0.6126  1.0000  -0.9550   0.0000   0.0000   0.0000   0.3657
   2.500   0.6424   0.00741   0.00217  -0.0749  0.6041  1.0000  -0.9728   0.0000   0.0000   0.0000   0.3634
   2.600   0.6526   0.00749   0.00222  -0.0747  0.5955  1.0000  -0.9905   0.0000   0.0000   0.0000   0.3612
   2.700   0.6629   0.00757   0.00226  -0.0745  0.5872  1.0000  -1.0082   0.0000   0.0000   0.0000   0.3591
   2.800   0.6733   0.00763   0.00229  -0.0743  0.5782  1.0000  -1.0282   0.0000   0.0000   0.0000   0.3570
   2.900   0.6834   0.00773   0.00233  -0.0741  0.5691  1.0000  -1.0484   0.0000   0.0000   0.0000   0.3550
   3.000   0.6937   0.00781   0.00238  -0.0739  0.5608  1.0000  -1.0690   0.0000   0.0000   0.0000   0.3530
   3.100   0.7041   0.00788   0.00242  -0.0738  0.5519  1.0000  -1.0898   0.0000   0.0000   0.0000   0.3511
   3.200   0.7142   0.00798   0.00247  -0.0735  0.5437  1.0000  -1.1103   0.0000   0.0000   0.0000   0.3492
   3.300   0.7246   0.00805   0.00252  -0.0734  0.5356  1.0000  -1.1312   0.0000   0.0000   0.0000   0.3475
   3.400   0.7349   0.00813   0.00257  -0.0732  0.5265  1.0000  -1.1521   0.0000   0.0000   0.0000   0.3457
   3.500   0.7447   0.00826   0.00262  -0.0730  0.5175  1.0000  -1.1726   0.0000   0.0000   0.0000   0.3440
   3.600   0.7552   0.00832   0.00268  -0.0728  0.5086  1.0000  -1.1962   0.0000   0.0000   0.0000   0.3424
   3.700   0.7652   0.00842   0.00274  -0.0726  0.4991  1.0000  -1.2204   0.0000   0.0000   0.0000   0.3407
   3.800   0.7753   0.00852   0.00280  -0.0724  0.4907  1.0000  -1.2447   0.0000   0.0000   0.0000   0.3391
   3.900   0.7857   0.00860   0.00286  -0.0723  0.4820  1.0000  -1.2695   0.0000   0.0000   0.0000   0.3376
   4.000   0.7956   0.00871   0.00292  -0.0720  0.4734  1.0000  -1.2940   0.0000   0.0000   0.0000   0.3361
   4.100   0.8058   0.00881   0.00302  -0.0719  0.4651  1.0000  -1.3187   0.0000   0.0000   0.0000   0.3346
   4.200   0.8160   0.00890   0.00309  -0.0717  0.4558  1.0000  -1.3437   0.0000   0.0000   0.0000   0.3332
   4.300   0.8256   0.00904   0.00317  -0.0714  0.4464  1.0000  -1.3681   0.0000   0.0000   0.0000   0.3318
   4.400   0.8360   0.00912   0.00324  -0.0713  0.4373  1.0000  -1.3935   0.0000   0.0000   0.0000   0.3304
   4.500   0.8459   0.00923   0.00331  -0.0711  0.4276  1.0000  -1.4252   0.0000   0.0000   0.0000   0.3291
   4.600   0.8557   0.00936   0.00340  -0.0708  0.4190  1.0000  -1.4596   0.0000   0.0000   0.0000   0.3278
   4.700   0.8660   0.00945   0.00348  -0.0707  0.4104  1.0000  -1.4951   0.0000   0.0000   0.0000   0.3265
   4.800   0.8757   0.00958   0.00356  -0.0705  0.4015  1.0000  -1.5299   0.0000   0.0000   0.0000   0.3252
   4.900   0.8857   0.00969   0.00365  -0.0703  0.3930  1.0000  -1.5653   0.0000   0.0000   0.0000   0.3240
   5.000   0.8957   0.00980   0.00374  -0.0701  0.3835  1.0000  -1.6010   0.0000   0.0000   0.0000   0.3228
   5.200   0.9153   0.01006   0.00393  -0.0696  0.3649  1.0000  -1.6722   0.0000   0.0000   0.0000   0.3204
   5.300   0.9249   0.01020   0.00403  -0.0694  0.3552  1.0000  -1.7098   0.0000   0.0000   0.0000   0.3193
   5.400   0.9346   0.01034   0.00413  -0.0692  0.3468  1.0000  -1.7508   0.0000   0.0000   0.0000   0.3182
   5.500   0.9447   0.01045   0.00427  -0.0690  0.3385  1.0000  -1.7929   0.0000   0.0000   0.0000   0.3171
   5.600   0.9542   0.01060   0.00438  -0.0687  0.3298  1.0000  -1.8652   0.0000   0.0000   0.0000   0.3160
   5.700   0.9639   0.01074   0.00449  -0.0685  0.3220  1.0000  -1.9437   0.0000   0.0000   0.0000   0.3149
   5.800   0.9739   0.01085   0.00460  -0.0683  0.3135  1.0000  -2.0242   0.0000   0.0000   0.0000   0.3139
   5.900   0.9830   0.01103   0.00473  -0.0680  0.3044  1.0000  -2.1030   0.0000   0.0000   0.0000   0.3128
   6.000   0.9929   0.01116   0.00484  -0.0678  0.2955  1.0000  -2.1854   0.0000   0.0000   0.0000   0.3118
   6.100   1.0023   0.01132   0.00496  -0.0676  0.2853  1.0000  -2.2673   0.0000   0.0000   0.0000   0.3108
   6.200   1.0114   0.01150   0.00510  -0.0673  0.2757  1.0000  -2.3491   0.0000   0.0000   0.0000   0.3098
   6.300   1.0211   0.01164   0.00522  -0.0671  0.2661  1.0000  -2.4340   0.0000   0.0000   0.0000   0.3089
   6.400   1.0299   0.01186   0.00537  -0.0667  0.2561  1.0000  -2.5160   0.0000   0.0000   0.0000   0.3079
   6.500   1.0396   0.01199   0.00549  -0.0665  0.2473  1.0000  -2.6032   0.0000   0.0000   0.0000   0.3069
   6.600   1.0487   0.01217   0.00563  -0.0662  0.2375  1.0000  -2.6884   0.0000   0.0000   0.0000   0.3060
   6.700   1.0578   0.01236   0.00578  -0.0660  0.2286  1.0000  -2.7743   0.0000   0.0000   0.0000   0.3051
   6.800   1.0672   0.01251   0.00592  -0.0657  0.2195  1.0000  -2.8628   0.0000   0.0000   0.0000   0.3042
   6.900   1.0758   0.01275   0.00608  -0.0654  0.2099  1.0000  -2.9481   0.0000   0.0000   0.0000   0.3032
   7.000   1.0853   0.01289   0.00626  -0.0651  0.2024  1.0000  -3.0423   0.0000   0.0000   0.0000   0.3024
   7.100   1.0945   0.01307   0.00641  -0.0649  0.1944  1.0000  -3.1324   0.0000   0.0000   0.0000   0.3015
   7.200   1.1029   0.01331   0.00659  -0.0645  0.1861  1.0000  -3.2196   0.0000   0.0000   0.0000   0.3006
   7.300   1.1126   0.01344   0.00674  -0.0643  0.1800  1.0000  -3.3130   0.0000   0.0000   0.0000   0.2997
   7.400   1.1216   0.01362   0.00690  -0.0640  0.1726  1.0000  -3.4045   0.0000   0.0000   0.0000   0.2989
   7.500   1.1301   0.01386   0.00709  -0.0636  0.1649  1.0000  -3.4934   0.0000   0.0000   0.0000   0.2980
   7.600   1.1394   0.01402   0.00726  -0.0634  0.1591  1.0000  -3.5871   0.0000   0.0000   0.0000   0.2972
   7.700   1.1484   0.01419   0.00742  -0.0631  0.1523  1.0000  -3.6804   0.0000   0.0000   0.0000   0.2964
   7.800   1.1567   0.01444   0.00762  -0.0627  0.1447  1.0000  -3.7707   0.0000   0.0000   0.0000   0.2955
   7.900   1.1655   0.01463   0.00780  -0.0624  0.1378  1.0000  -3.8639   0.0000   0.0000   0.0000   0.2947
   8.000   1.1742   0.01484   0.00798  -0.0621  0.1299  1.0000  -3.9574   0.0000   0.0000   0.0000   0.2939
   8.100   1.1820   0.01512   0.00820  -0.0616  0.1211  1.0000  -4.0466   0.0000   0.0000   0.0000   0.2931
   8.200   1.1908   0.01531   0.00838  -0.0613  0.1152  1.0000  -4.1415   0.0000   0.0000   0.0000   0.2923
   8.300   1.1993   0.01552   0.00858  -0.0610  0.1088  1.0000  -4.2348   0.0000   0.0000   0.0000   0.2915
   8.400   1.2071   0.01579   0.00881  -0.0605  0.1021  1.0000  -4.3247   0.0000   0.0000   0.0000   0.2907
   8.500   1.2155   0.01601   0.00902  -0.0601  0.0966  1.0000  -4.4170   0.0000   0.0000   0.0000   0.2899
   8.600   1.2240   0.01622   0.00926  -0.0598  0.0910  1.0000  -4.5093   0.0000   0.0000   0.0000   0.2891
   8.700   1.2315   0.01650   0.00950  -0.0593  0.0842  1.0000  -4.5974   0.0000   0.0000   0.0000   0.2883
   8.800   1.2391   0.01678   0.00976  -0.0588  0.0779  1.0000  -4.6847   0.0000   0.0000   0.0000   0.2875
   8.900   1.2473   0.01700   0.00998  -0.0584  0.0727  1.0000  -4.7744   0.0000   0.0000   0.0000   0.2867
   9.000   1.2543   0.01732   0.01025  -0.0579  0.0656  1.0000  -4.8569   0.0000   0.0000   0.0000   0.2859
   9.100   1.2612   0.01765   0.01055  -0.0573  0.0583  1.0000  -4.9355   0.0000   0.0000   0.0000   0.2850
   9.200   1.2675   0.01803   0.01087  -0.0567  0.0496  1.0000  -5.0076   0.0000   0.0000   0.0000   0.2842
   9.300   1.2727   0.01850   0.01127  -0.0559  0.0394  1.0000  -5.0670   0.0000   0.0000   0.0000   0.2832
   9.400   1.2764   0.01910   0.01179  -0.0548  0.0294  1.0000  -5.1081   0.0000   0.0000   0.0000   0.2822
   9.500   1.2808   0.01962   0.01226  -0.0539  0.0241  1.0000  -5.1525   0.0000   0.0000   0.0000   0.2811
   9.600   1.2840   0.02024   0.01287  -0.0527  0.0203  1.0000  -5.1740   0.0000   0.0000   0.0000   0.2800
   9.700   1.2903   0.02057   0.01325  -0.0520  0.0194  1.0000  -5.2352   0.0000   0.0000   0.0000   0.2791
   9.800   1.2962   0.02091   0.01363  -0.0512  0.0185  1.0000  -5.2950   0.0000   0.0000   0.0000   0.2781
   9.900   1.3018   0.02127   0.01403  -0.0504  0.0177  1.0000  -5.3741   0.0000   0.0000   0.0000   0.2772
  10.000   1.3066   0.02163   0.01443  -0.0495  0.0170  1.0000  -5.4557   0.0000   0.0000   0.0000   0.2762
  10.100   1.3105   0.02202   0.01484  -0.0484  0.0164  1.0000  -5.5333   0.0000   0.0000   0.0000   0.2752
  10.200   1.3139   0.02242   0.01527  -0.0473  0.0160  1.0000  -5.6070   0.0000   0.0000   0.0000   0.2741
  10.300   1.3168   0.02285   0.01574  -0.0461  0.0155  1.0000  -5.6767   0.0000   0.0000   0.0000   0.2729
  10.400   1.3190   0.02332   0.01625  -0.0448  0.0151  1.0000  -5.7411   0.0000   0.0000   0.0000   0.2718
  10.500   1.3207   0.02383   0.01680  -0.0435  0.0148  1.0000  -5.8002   0.0000   0.0000   0.0000   0.2706
  10.600   1.3216   0.02438   0.01741  -0.0421  0.0145  1.0000  -5.8540   0.0000   0.0000   0.0000   0.2694
  10.700   1.3219   0.02498   0.01806  -0.0407  0.0143  1.0000  -5.9029   0.0000   0.0000   0.0000   0.2681
  10.800   1.3218   0.02561   0.01876  -0.0393  0.0141  1.0000  -5.9483   0.0000   0.0000   0.0000   0.2669
  10.900   1.3213   0.02630   0.01950  -0.0379  0.0139  1.0000  -5.9902   0.0000   0.0000   0.0000   0.2657
  11.000   1.3204   0.02702   0.02030  -0.0365  0.0138  1.0000  -6.0290   0.0000   0.0000   0.0000   0.2645
  11.100   1.3193   0.02780   0.02113  -0.0351  0.0137  1.0000  -6.0654   0.0000   0.0000   0.0000   0.2634
  11.200   1.3200   0.02844   0.02186  -0.0340  0.0136  1.0000  -6.1174   0.0000   0.0000   0.0000   0.2624
  11.300   1.3215   0.02906   0.02252  -0.0330  0.0136  1.0000  -6.1780   0.0000   0.0000   0.0000   0.2615
  11.400   1.3228   0.02970   0.02321  -0.0321  0.0135  1.0000  -6.2371   0.0000   0.0000   0.0000   0.2606
  11.500   1.3238   0.03037   0.02394  -0.0311  0.0135  1.0000  -6.2948   0.0000   0.0000   0.0000   0.2597
  11.600   1.3250   0.03105   0.02468  -0.0302  0.0134  1.0000  -6.3534   0.0000   0.0000   0.0000   0.2588
  11.700   1.3261   0.03175   0.02543  -0.0294  0.0134  1.0000  -6.4119   0.0000   0.0000   0.0000   0.2580
  11.800   1.3271   0.03247   0.02620  -0.0286  0.0133  1.0000  -6.4709   0.0000   0.0000   0.0000   0.2572
  11.900   1.3283   0.03320   0.02698  -0.0278  0.0133  1.0000  -6.5308   0.0000   0.0000   0.0000   0.2565
  12.000   1.3294   0.03394   0.02778  -0.0271  0.0132  1.0000  -6.5905   0.0000   0.0000   0.0000   0.2557
  12.100   1.3305   0.03471   0.02860  -0.0264  0.0131  1.0000  -6.6506   0.0000   0.0000   0.0000   0.2550
  12.200   1.3316   0.03549   0.02944  -0.0258  0.0131  1.0000  -6.7107   0.0000   0.0000   0.0000   0.2544
  12.300   1.3324   0.03630   0.03030  -0.0252  0.0130  1.0000  -6.7698   0.0000   0.0000   0.0000   0.2537
  12.400   1.3333   0.03712   0.03118  -0.0246  0.0129  1.0000  -6.8289   0.0000   0.0000   0.0000   0.2531
  12.500   1.3340   0.03798   0.03209  -0.0241  0.0128  1.0000  -6.8868   0.0000   0.0000   0.0000   0.2525
  12.600   1.3346   0.03886   0.03303  -0.0236  0.0127  1.0000  -6.9440   0.0000   0.0000   0.0000   0.2520
  12.700   1.3352   0.03978   0.03400  -0.0231  0.0126  1.0000  -7.0003   0.0000   0.0000   0.0000   0.2515
  12.800   1.3355   0.04073   0.03501  -0.0227  0.0125  1.0000  -7.0548   0.0000   0.0000   0.0000   0.2510
  12.900   1.3358   0.04171   0.03604  -0.0224  0.0125  1.0000  -7.1084   0.0000   0.0000   0.0000   0.2505
  13.000   1.3357   0.04274   0.03713  -0.0220  0.0124  1.0000  -7.1592   0.0000   0.0000   0.0000   0.2501
  13.100   1.3356   0.04380   0.03825  -0.0217  0.0123  1.0000  -7.2081   0.0000   0.0000   0.0000   0.2497
  13.200   1.3351   0.04492   0.03943  -0.0215  0.0122  1.0000  -7.2535   0.0000   0.0000   0.0000   0.2493
  13.300   1.3345   0.04608   0.04066  -0.0213  0.0122  1.0000  -7.2956   0.0000   0.0000   0.0000   0.2490
  13.400   1.3336   0.04731   0.04194  -0.0211  0.0122  1.0000  -7.3345   0.0000   0.0000   0.0000   0.2487
  13.500   1.3325   0.04857   0.04328  -0.0210  0.0121  1.0000  -7.3712   0.0000   0.0000   0.0000   0.2484
  13.600   1.3314   0.04988   0.04465  -0.0209  0.0121  1.0000  -7.4068   0.0000   0.0000   0.0000   0.2482
  13.700   1.3300   0.05123   0.04607  -0.0209  0.0121  1.0000  -7.4398   0.0000   0.0000   0.0000   0.2480
  13.800   1.3286   0.05262   0.04753  -0.0209  0.0120  1.0000  -7.4717   0.0000   0.0000   0.0000   0.2479
  13.900   1.3268   0.05408   0.04905  -0.0210  0.0120  1.0000  -7.5005   0.0000   0.0000   0.0000   0.2478
  14.000   1.3250   0.05556   0.05061  -0.0211  0.0120  1.0000  -7.5278   0.0000   0.0000   0.0000   0.2477
  14.100   1.3228   0.05711   0.05223  -0.0213  0.0120  1.0000  -7.5516   0.0000   0.0000   0.0000   0.2477
  14.200   1.3205   0.05871   0.05389  -0.0216  0.0120  1.0000  -7.5735   0.0000   0.0000   0.0000   0.2477
  14.300   1.3179   0.06037   0.05562  -0.0219  0.0119  1.0000  -7.5925   0.0000   0.0000   0.0000   0.2478
  14.400   1.3151   0.06209   0.05741  -0.0223  0.0119  1.0000  -7.6093   0.0000   0.0000   0.0000   0.2480
  14.500   1.3122   0.06387   0.05927  -0.0228  0.0119  1.0000  -7.6233   0.0000   0.0000   0.0000   0.2482
  14.600   1.3090   0.06572   0.06119  -0.0233  0.0119  1.0000  -7.6346   0.0000   0.0000   0.0000   0.2484
  14.700   1.3056   0.06764   0.06318  -0.0239  0.0119  1.0000  -7.6431   0.0000   0.0000   0.0000   0.2487
  14.800   1.3020   0.06962   0.06524  -0.0246  0.0119  1.0000  -7.6486   0.0000   0.0000   0.0000   0.2491
  14.900   1.2982   0.07168   0.06737  -0.0254  0.0119  1.0000  -7.6510   0.0000   0.0000   0.0000   0.2496
  15.000   1.2941   0.07382   0.06958  -0.0262  0.0118  1.0000  -7.6504   0.0000   0.0000   0.0000   0.2501


