xflr5 v6.61

 Calculated polar for: SD7037-092-88

 1 1 Reynolds number fixed          Mach number fixed         

 xtrf =   1.000 (top)        1.000 (bottom)
 Mach =   0.000     Re =     0.150 e 6     Ncrit =   9.000

  alpha     CL        CD       CDp       Cm    Top Xtr Bot Xtr   Cpmin    Chinge    XCp    
 ------- -------- --------- --------- -------- ------- ------- -------- --------- ---------
 -10.000  -0.3797   0.11620   0.11197  -0.0345  1.0000  0.0495  -1.6850   0.0000   0.0000   0.0000   0.1524
  -9.900  -0.3789   0.11500   0.11078  -0.0350  1.0000  0.0496  -1.7003   0.0000   0.0000   0.0000   0.1508
  -9.800  -0.3783   0.11378   0.10958  -0.0356  1.0000  0.0496  -1.7158   0.0000   0.0000   0.0000   0.1493
  -9.700  -0.3777   0.11254   0.10836  -0.0361  1.0000  0.0496  -1.7317   0.0000   0.0000   0.0000   0.1479
  -9.600  -0.3773   0.11130   0.10713  -0.0366  1.0000  0.0497  -1.7479   0.0000   0.0000   0.0000   0.1465
  -9.500  -0.3820   0.10531   0.10119  -0.0361  1.0000  0.0510  -1.7986   0.0000   0.0000   0.0000   0.1489
  -9.400  -0.3773   0.10343   0.09931  -0.0350  1.0000  0.0517  -1.7558   0.0000   0.0000   0.0000   0.1506
  -9.300  -0.3725   0.10203   0.09791  -0.0342  1.0000  0.0523  -1.7158   0.0000   0.0000   0.0000   0.1517
  -9.200  -0.3686   0.10081   0.09669  -0.0336  1.0000  0.0529  -1.6851   0.0000   0.0000   0.0000   0.1524
  -9.100  -0.3654   0.09966   0.09555  -0.0332  1.0000  0.0536  -1.6624   0.0000   0.0000   0.0000   0.1528
  -9.000  -0.3629   0.09855   0.09445  -0.0329  1.0000  0.0542  -1.6461   0.0000   0.0000   0.0000   0.1530
  -8.900  -0.3608   0.09745   0.09337  -0.0327  1.0000  0.0548  -1.6346   0.0000   0.0000   0.0000   0.1531
  -8.800  -0.3593   0.09637   0.09230  -0.0326  1.0000  0.0555  -1.6272   0.0000   0.0000   0.0000   0.1531
  -8.700  -0.3581   0.09529   0.09122  -0.0325  1.0000  0.0561  -1.6228   0.0000   0.0000   0.0000   0.1531
  -8.600  -0.3574   0.09422   0.09016  -0.0325  1.0000  0.0568  -1.6215   0.0000   0.0000   0.0000   0.1531
  -8.500  -0.3569   0.09316   0.08912  -0.0325  1.0000  0.0575  -1.6227   0.0000   0.0000   0.0000   0.1530
  -8.400  -0.3568   0.09209   0.08808  -0.0325  1.0000  0.0582  -1.6261   0.0000   0.0000   0.0000   0.1531
  -8.300  -0.3571   0.09104   0.08704  -0.0325  1.0000  0.0590  -1.6315   0.0000   0.0000   0.0000   0.1532
  -8.200  -0.3577   0.08999   0.08602  -0.0326  1.0000  0.0597  -1.6387   0.0000   0.0000   0.0000   0.1534
  -8.100  -0.3587   0.08896   0.08501  -0.0326  1.0000  0.0604  -1.6478   0.0000   0.0000   0.0000   0.1537
  -8.000  -0.3603   0.08795   0.08403  -0.0325  1.0000  0.0611  -1.6587   0.0000   0.0000   0.0000   0.1543
  -7.900  -0.3624   0.08697   0.08308  -0.0325  1.0000  0.0619  -1.6714   0.0000   0.0000   0.0000   0.1551
  -7.800  -0.3653   0.08604   0.08218  -0.0323  1.0000  0.0626  -1.6862   0.0000   0.0000   0.0000   0.1563
  -7.700  -0.3690   0.08516   0.08134  -0.0321  1.0000  0.0633  -1.7031   0.0000   0.0000   0.0000   0.1579
  -7.600  -0.3736   0.08435   0.08056  -0.0318  1.0000  0.0640  -1.7222   0.0000   0.0000   0.0000   0.1601
  -7.500  -0.3794   0.08362   0.07987  -0.0313  1.0000  0.0645  -1.7428   0.0000   0.0000   0.0000   0.1629
  -7.400  -0.3861   0.08296   0.07925  -0.0306  1.0000  0.0649  -1.7641   0.0000   0.0000   0.0000   0.1663
  -7.300  -0.3934   0.08232   0.07864  -0.0298  1.0000  0.0652  -1.7857   0.0000   0.0000   0.0000   0.1699
  -7.200  -0.3998   0.08152   0.07789  -0.0296  1.0000  0.0656  -1.8106   0.0000   0.0000   0.0000   0.1718
  -7.100  -0.4051   0.08053   0.07692  -0.0301  1.0000  0.0662  -1.8415   0.0000   0.0000   0.0000   0.1716
  -7.000  -0.4100   0.07946   0.07588  -0.0312  1.0000  0.0668  -1.8783   0.0000   0.0000   0.0000   0.1702
  -6.900  -0.4143   0.07834   0.07477  -0.0328  1.0000  0.0674  -1.9240   0.0000   0.0000   0.0000   0.1672
  -6.800  -0.4181   0.07717   0.07359  -0.0349  1.0000  0.0681  -1.9799   0.0000   0.0000   0.0000   0.1630
  -6.700  -0.4202   0.07623   0.07261  -0.0366  1.0000  0.0686  -2.0296   0.0000   0.0000   0.0000   0.1593
  -6.500  -0.4221   0.07437   0.07069  -0.0381  1.0000  0.0692  -2.0916   0.0000   0.0000   0.0000   0.1565
  -6.400  -0.4226   0.07335   0.06958  -0.0384  1.0000  0.0693  -2.1156   0.0000   0.0000   0.0000   0.1559
  -6.300  -0.4228   0.07228   0.06845  -0.0386  1.0000  0.0694  -2.1367   0.0000   0.0000   0.0000   0.1554
  -6.200  -0.4294   0.06836   0.06458  -0.0395  1.0000  0.0701  -2.2071   0.0000   0.0000   0.0000   0.1548
  -6.100  -0.4346   0.06457   0.06085  -0.0393  1.0000  0.0713  -2.2238   0.0000   0.0000   0.0000   0.1564
  -6.000  -0.4325   0.06379   0.06017  -0.0368  1.0000  0.0726  -2.1358   0.0000   0.0000   0.0000   0.1618
  -5.900  -0.4305   0.06350   0.05994  -0.0347  1.0000  0.0739  -2.0641   0.0000   0.0000   0.0000   0.1665
  -5.800  -0.4286   0.06309   0.05956  -0.0331  1.0000  0.0752  -2.0128   0.0000   0.0000   0.0000   0.1698
  -5.700  -0.4268   0.06237   0.05886  -0.0323  1.0000  0.0765  -1.9823   0.0000   0.0000   0.0000   0.1715
  -5.600  -0.4249   0.06146   0.05794  -0.0320  1.0000  0.0779  -1.9634   0.0000   0.0000   0.0000   0.1720
  -5.500  -0.4227   0.06038   0.05685  -0.0320  1.0000  0.0793  -1.9528   0.0000   0.0000   0.0000   0.1717
  -5.400  -0.4201   0.05916   0.05561  -0.0322  1.0000  0.0808  -1.9486   0.0000   0.0000   0.0000   0.1706
  -5.300  -0.4169   0.05784   0.05424  -0.0328  1.0000  0.0824  -1.9499   0.0000   0.0000   0.0000   0.1687
  -5.200  -0.4128   0.05641   0.05276  -0.0337  1.0000  0.0846  -1.9587   0.0000   0.0000   0.0000   0.1658
  -5.100  -0.3978   0.05775   0.05360  -0.0372  1.0000  0.0909  -2.0295   0.0000   0.0000   0.0000   0.1538
  -5.000  -0.3926   0.05713   0.05286  -0.0374  1.0000  0.0912  -2.0281   0.0000   0.0000   0.0000   0.1521
  -4.900  -0.3975   0.05045   0.04624  -0.0391  1.0000  0.0936  -2.0825   0.0000   0.0000   0.0000   0.1489
  -4.800  -0.3906   0.04889   0.04475  -0.0392  0.9993  0.0947  -2.0354   0.0000   0.0000   0.0000   0.1471
  -4.700  -0.3786   0.04752   0.04342  -0.0401  0.9975  0.0961  -1.9750   0.0000   0.0000   0.0000   0.1413
  -4.600  -0.3655   0.04632   0.04222  -0.0413  0.9955  0.0980  -1.9165   0.0000   0.0000   0.0000   0.1343
  -4.500  -0.3511   0.04511   0.04099  -0.0428  0.9934  0.1003  -1.8633   0.0000   0.0000   0.0000   0.1254
  -4.400  -0.3352   0.04379   0.03960  -0.0448  0.9915  0.1035  -1.8190   0.0000   0.0000   0.0000   0.1136
  -4.300  -0.3147   0.04231   0.03755  -0.0490  0.9885  0.1166  -1.8419   0.0000   0.0000   0.0000   0.0915
  -4.200  -0.3041   0.04039   0.03572  -0.0497  0.9864  0.1181  -1.7917   0.0000   0.0000   0.0000   0.0835
  -4.100  -0.2917   0.03906   0.03441  -0.0506  0.9840  0.1198  -1.7375   0.0000   0.0000   0.0000   0.0736
  -4.000  -0.2615   0.03078   0.02462  -0.0517  0.9841  0.0506  -2.2597   0.0000   0.0000   0.0000   0.0480
  -3.900  -0.2480   0.02882   0.02260  -0.0526  0.9823  0.0474  -2.2399   0.0000   0.0000   0.0000   0.0335
  -3.800  -0.2333   0.02705   0.02060  -0.0537  0.9805  0.0457  -2.2264   0.0000   0.0000   0.0000   0.0154
  -3.700  -0.2176   0.02563   0.01896  -0.0547  0.9787  0.0442  -2.2043   0.0000   0.0000   0.0000  -0.0061
  -3.600  -0.2013   0.02441   0.01750  -0.0556  0.9770  0.0429  -2.1772   0.0000   0.0000   0.0000  -0.0316
  -3.500  -0.1845   0.02334   0.01621  -0.0566  0.9755  0.0419  -2.1544   0.0000   0.0000   0.0000  -0.0623
  -3.400  -0.1674   0.02242   0.01510  -0.0576  0.9741  0.0412  -2.1499   0.0000   0.0000   0.0000  -0.1001
  -3.300  -0.1498   0.02162   0.01411  -0.0587  0.9728  0.0409  -2.1380   0.0000   0.0000   0.0000  -0.1483
  -3.200  -0.1372   0.02099   0.01336  -0.0588  0.9700  0.0408  -2.1228   0.0000   0.0000   0.0000  -0.1854
  -3.100  -0.1245   0.02041   0.01270  -0.0590  0.9668  0.0409  -2.1032   0.0000   0.0000   0.0000  -0.2309
  -3.000  -0.1104   0.01987   0.01209  -0.0594  0.9638  0.0413  -2.0794   0.0000   0.0000   0.0000  -0.2961
  -2.900  -0.0954   0.01937   0.01154  -0.0601  0.9611  0.0421  -2.0527   0.0000   0.0000   0.0000  -0.3884
  -2.800  -0.0796   0.01891   0.01103  -0.0608  0.9587  0.0431  -2.0241   0.0000   0.0000   0.0000  -0.5243
  -2.700  -0.0631   0.01848   0.01056  -0.0618  0.9565  0.0447  -1.9946   0.0000   0.0000   0.0000  -0.7423
  -2.600  -0.0456   0.01809   0.01013  -0.0629  0.9545  0.0468  -1.9644   0.0000   0.0000   0.0000  -1.1450
  -2.500  -0.0273   0.01780   0.00979  -0.0641  0.9527  0.0492  -1.9284   0.0000   0.0000   0.0000  -2.1227
  -2.400  -0.0098   0.01715   0.00920  -0.0655  0.9512  0.0577  -1.9000   0.0000   0.0000   0.0000  -6.4818
  -2.300   0.0033   0.01694   0.00900  -0.0658  0.9479  0.0667  -1.8654   0.0000   0.0000   0.0000  20.2177
  -2.200   0.0131   0.01634   0.00847  -0.0654  0.9436  0.0888  -1.8930   0.0000   0.0000   0.0000   5.3110
  -2.100   0.0250   0.01532   0.00811  -0.0659  0.9404  0.2161  -1.9039   0.0000   0.0000   0.0000   2.9077
  -2.000   0.0391   0.01489   0.00801  -0.0667  0.9373  0.3055  -1.8368   0.0000   0.0000   0.0000   1.9707
  -1.900   0.0536   0.01441   0.00800  -0.0676  0.9346  0.4141  -1.7553   0.0000   0.0000   0.0000   1.5221
  -1.800   0.0670   0.01392   0.00805  -0.0680  0.9322  0.5420  -1.6732   0.0000   0.0000   0.0000   1.2726
  -1.700   0.0795   0.01351   0.00813  -0.0678  0.9302  0.6687  -1.5920   0.0000   0.0000   0.0000   1.1085
  -1.600   0.0920   0.01323   0.00818  -0.0672  0.9284  0.7739  -1.5101   0.0000   0.0000   0.0000   0.9853
  -1.500   0.1083   0.01306   0.00818  -0.0673  0.9271  0.8590  -1.4156   0.0000   0.0000   0.0000   0.8753
  -1.400   0.1443   0.01288   0.00803  -0.0717  0.9277  0.9592  -1.2561   0.0000   0.0000   0.0000   0.7489
  -1.300   0.1749   0.01280   0.00783  -0.0756  0.9274  1.0000  -1.1190   0.0000   0.0000   0.0000   0.6835
  -1.200   0.1816   0.01280   0.00776  -0.0747  0.9212  1.0000  -1.0626   0.0000   0.0000   0.0000   0.6629
  -1.100   0.1937   0.01276   0.00765  -0.0749  0.9162  1.0000  -0.9877   0.0000   0.0000   0.0000   0.6378
  -1.000   0.2108   0.01270   0.00750  -0.0760  0.9129  1.0000  -0.8936   0.0000   0.0000   0.0000   0.6114
  -0.900   0.2295   0.01263   0.00735  -0.0774  0.9103  1.0000  -0.8009   0.0000   0.0000   0.0000   0.5878
  -0.800   0.2483   0.01255   0.00720  -0.0788  0.9080  1.0000  -0.7099   0.0000   0.0000   0.0000   0.5676
  -0.700   0.2674   0.01245   0.00704  -0.0802  0.9059  1.0000  -0.6198   0.0000   0.0000   0.0000   0.5500
  -0.600   0.2868   0.01236   0.00687  -0.0817  0.9040  1.0000  -0.5307   0.0000   0.0000   0.0000   0.5346
  -0.500   0.3060   0.01226   0.00672  -0.0830  0.9023  1.0000  -0.5331   0.0000   0.0000   0.0000   0.5211
  -0.400   0.3066   0.01231   0.00674  -0.0810  0.8930  1.0000  -0.5371   0.0000   0.0000   0.0000   0.5138
  -0.300   0.3202   0.01224   0.00662  -0.0813  0.8888  1.0000  -0.5496   0.0000   0.0000   0.0000   0.5034
  -0.200   0.3359   0.01213   0.00647  -0.0820  0.8855  1.0000  -0.5635   0.0000   0.0000   0.0000   0.4935
  -0.100   0.3522   0.01202   0.00631  -0.0827  0.8826  1.0000  -0.5779   0.0000   0.0000   0.0000   0.4842
   0.000   0.3687   0.01189   0.00613  -0.0835  0.8801  1.0000  -0.5925   0.0000   0.0000   0.0000   0.4756
   0.100   0.3806   0.01184   0.00605  -0.0835  0.8757  1.0000  -0.6049   0.0000   0.0000   0.0000   0.4683
   0.200   0.3878   0.01184   0.00602  -0.0826  0.8684  1.0000  -0.6144   0.0000   0.0000   0.0000   0.4619
   0.300   0.4002   0.01176   0.00590  -0.0826  0.8636  1.0000  -0.6276   0.0000   0.0000   0.0000   0.4552
   0.400   0.4141   0.01164   0.00575  -0.0828  0.8597  1.0000  -0.6419   0.0000   0.0000   0.0000   0.4488
   0.500   0.4287   0.01151   0.00558  -0.0832  0.8565  1.0000  -0.6568   0.0000   0.0000   0.0000   0.4427
   0.600   0.4400   0.01146   0.00550  -0.0830  0.8516  1.0000  -0.6696   0.0000   0.0000   0.0000   0.4372
   0.700   0.4480   0.01146   0.00548  -0.0822  0.8441  1.0000  -0.6809   0.0000   0.0000   0.0000   0.4321
   0.800   0.4597   0.01138   0.00537  -0.0821  0.8388  1.0000  -0.6952   0.0000   0.0000   0.0000   0.4269
   0.900   0.4727   0.01127   0.00522  -0.0821  0.8344  1.0000  -0.7106   0.0000   0.0000   0.0000   0.4220
   1.000   0.4861   0.01116   0.00507  -0.0822  0.8306  1.0000  -0.7264   0.0000   0.0000   0.0000   0.4173
   1.100   0.4937   0.01120   0.00510  -0.0814  0.8223  1.0000  -0.7376   0.0000   0.0000   0.0000   0.4131
   1.200   0.5045   0.01115   0.00502  -0.0811  0.8159  1.0000  -0.7513   0.0000   0.0000   0.0000   0.4088
   1.300   0.5166   0.01106   0.00490  -0.0810  0.8106  1.0000  -0.7674   0.0000   0.0000   0.0000   0.4047
   1.400   0.5288   0.01099   0.00479  -0.0809  0.8056  1.0000  -0.7842   0.0000   0.0000   0.0000   0.4008
   1.500   0.5375   0.01102   0.00481  -0.0803  0.7969  1.0000  -0.7977   0.0000   0.0000   0.0000   0.3972
   1.600   0.5484   0.01098   0.00473  -0.0800  0.7902  1.0000  -0.8134   0.0000   0.0000   0.0000   0.3936
   1.700   0.5604   0.01091   0.00462  -0.0798  0.7846  1.0000  -0.8302   0.0000   0.0000   0.0000   0.3901
   1.800   0.5703   0.01093   0.00461  -0.0794  0.7766  1.0000  -0.8450   0.0000   0.0000   0.0000   0.3869
   1.900   0.5804   0.01093   0.00459  -0.0791  0.7685  1.0000  -0.8602   0.0000   0.0000   0.0000   0.3837
   2.000   0.5919   0.01090   0.00450  -0.0788  0.7619  1.0000  -0.8771   0.0000   0.0000   0.0000   0.3806
   2.100   0.6024   0.01092   0.00449  -0.0785  0.7543  1.0000  -0.8946   0.0000   0.0000   0.0000   0.3777
   2.200   0.6123   0.01094   0.00449  -0.0781  0.7455  1.0000  -0.9116   0.0000   0.0000   0.0000   0.3749
   2.300   0.6234   0.01094   0.00444  -0.0779  0.7382  1.0000  -0.9301   0.0000   0.0000   0.0000   0.3721
   2.400   0.6338   0.01098   0.00444  -0.0776  0.7301  1.0000  -0.9477   0.0000   0.0000   0.0000   0.3695
   2.500   0.6437   0.01102   0.00446  -0.0772  0.7209  1.0000  -0.9649   0.0000   0.0000   0.0000   0.3669
   2.600   0.6547   0.01105   0.00442  -0.0769  0.7134  1.0000  -0.9834   0.0000   0.0000   0.0000   0.3644
   2.700   0.6648   0.01111   0.00449  -0.0766  0.7046  1.0000  -1.0008   0.0000   0.0000   0.0000   0.3621
   2.800   0.6748   0.01116   0.00451  -0.0763  0.6954  1.0000  -1.0196   0.0000   0.0000   0.0000   0.3598
   2.900   0.6857   0.01121   0.00448  -0.0760  0.6877  1.0000  -1.0409   0.0000   0.0000   0.0000   0.3575
   3.000   0.6953   0.01128   0.00455  -0.0756  0.6780  1.0000  -1.0605   0.0000   0.0000   0.0000   0.3553
   3.100   0.7055   0.01135   0.00458  -0.0753  0.6690  1.0000  -1.0810   0.0000   0.0000   0.0000   0.3532
   3.200   0.7161   0.01143   0.00458  -0.0750  0.6610  1.0000  -1.1021   0.0000   0.0000   0.0000   0.3512
   3.300   0.7257   0.01150   0.00466  -0.0747  0.6509  1.0000  -1.1219   0.0000   0.0000   0.0000   0.3492
   3.400   0.7359   0.01158   0.00468  -0.0744  0.6422  1.0000  -1.1429   0.0000   0.0000   0.0000   0.3472
   3.500   0.7460   0.01168   0.00474  -0.0740  0.6331  1.0000  -1.1635   0.0000   0.0000   0.0000   0.3454
   3.600   0.7558   0.01176   0.00480  -0.0737  0.6232  1.0000  -1.1843   0.0000   0.0000   0.0000   0.3436
   3.700   0.7661   0.01187   0.00483  -0.0734  0.6150  1.0000  -1.2089   0.0000   0.0000   0.0000   0.3418
   3.800   0.7757   0.01195   0.00493  -0.0731  0.6048  1.0000  -1.2323   0.0000   0.0000   0.0000   0.3401
   3.900   0.7856   0.01205   0.00498  -0.0727  0.5954  1.0000  -1.2566   0.0000   0.0000   0.0000   0.3383
   4.000   0.7955   0.01217   0.00504  -0.0724  0.5864  1.0000  -1.2809   0.0000   0.0000   0.0000   0.3367
   4.100   0.8051   0.01226   0.00518  -0.0721  0.5761  1.0000  -1.3048   0.0000   0.0000   0.0000   0.3351
   4.200   0.8151   0.01239   0.00523  -0.0717  0.5674  1.0000  -1.3295   0.0000   0.0000   0.0000   0.3335
   4.300   0.8247   0.01249   0.00534  -0.0714  0.5573  1.0000  -1.3535   0.0000   0.0000   0.0000   0.3320
   4.400   0.8344   0.01261   0.00542  -0.0711  0.5477  1.0000  -1.3779   0.0000   0.0000   0.0000   0.3305
   4.500   0.8441   0.01275   0.00550  -0.0707  0.5386  1.0000  -1.4068   0.0000   0.0000   0.0000   0.3290
   4.600   0.8536   0.01285   0.00561  -0.0704  0.5280  1.0000  -1.4402   0.0000   0.0000   0.0000   0.3276
   4.700   0.8632   0.01300   0.00568  -0.0700  0.5189  1.0000  -1.4744   0.0000   0.0000   0.0000   0.3261
   4.800   0.8726   0.01311   0.00581  -0.0697  0.5084  1.0000  -1.5082   0.0000   0.0000   0.0000   0.3248
   4.900   0.8821   0.01325   0.00590  -0.0693  0.4987  1.0000  -1.5423   0.0000   0.0000   0.0000   0.3234
   5.000   0.8916   0.01340   0.00601  -0.0690  0.4893  1.0000  -1.5767   0.0000   0.0000   0.0000   0.3221
   5.100   0.9010   0.01353   0.00614  -0.0687  0.4790  1.0000  -1.6109   0.0000   0.0000   0.0000   0.3208
   5.200   0.9102   0.01372   0.00623  -0.0683  0.4699  1.0000  -1.6456   0.0000   0.0000   0.0000   0.3195
   5.300   0.9196   0.01383   0.00638  -0.0679  0.4592  1.0000  -1.6800   0.0000   0.0000   0.0000   0.3182
   5.400   0.9287   0.01399   0.00649  -0.0675  0.4492  1.0000  -1.7145   0.0000   0.0000   0.0000   0.3170
   5.500   0.9379   0.01415   0.00663  -0.0672  0.4392  1.0000  -1.7492   0.0000   0.0000   0.0000   0.3158
   5.600   0.9470   0.01430   0.00682  -0.0668  0.4288  1.0000  -1.7877   0.0000   0.0000   0.0000   0.3146
   5.700   0.9560   0.01451   0.00695  -0.0664  0.4197  1.0000  -1.8546   0.0000   0.0000   0.0000   0.3134
   5.800   0.9652   0.01464   0.00712  -0.0661  0.4092  1.0000  -1.9294   0.0000   0.0000   0.0000   0.3123
   5.900   0.9740   0.01485   0.00726  -0.0656  0.3998  1.0000  -2.0047   0.0000   0.0000   0.0000   0.3111
   6.000   0.9831   0.01502   0.00744  -0.0653  0.3898  1.0000  -2.0814   0.0000   0.0000   0.0000   0.3100
   6.100   0.9918   0.01520   0.00759  -0.0649  0.3796  1.0000  -2.1582   0.0000   0.0000   0.0000   0.3089
   6.200   1.0005   0.01542   0.00775  -0.0645  0.3702  1.0000  -2.2357   0.0000   0.0000   0.0000   0.3078
   6.300   1.0094   0.01558   0.00794  -0.0641  0.3597  1.0000  -2.3143   0.0000   0.0000   0.0000   0.3067
   6.400   1.0177   0.01584   0.00810  -0.0636  0.3506  1.0000  -2.3922   0.0000   0.0000   0.0000   0.3056
   6.500   1.0267   0.01600   0.00831  -0.0633  0.3407  1.0000  -2.4725   0.0000   0.0000   0.0000   0.3046
   6.600   1.0353   0.01622   0.00850  -0.0628  0.3315  1.0000  -2.5523   0.0000   0.0000   0.0000   0.3036
   6.700   1.0437   0.01648   0.00870  -0.0624  0.3228  1.0000  -2.6323   0.0000   0.0000   0.0000   0.3026
   6.800   1.0524   0.01666   0.00892  -0.0620  0.3130  1.0000  -2.7140   0.0000   0.0000   0.0000   0.3016
   6.900   1.0604   0.01693   0.00911  -0.0615  0.3042  1.0000  -2.7941   0.0000   0.0000   0.0000   0.3006
   7.000   1.0690   0.01714   0.00935  -0.0611  0.2949  1.0000  -2.8764   0.0000   0.0000   0.0000   0.2996
   7.100   1.0772   0.01736   0.00960  -0.0607  0.2855  1.0000  -2.9611   0.0000   0.0000   0.0000   0.2986
   7.200   1.0849   0.01768   0.00983  -0.0602  0.2771  1.0000  -3.0425   0.0000   0.0000   0.0000   0.2976
   7.300   1.0935   0.01784   0.01007  -0.0598  0.2678  1.0000  -3.1271   0.0000   0.0000   0.0000   0.2967
   7.400   1.1012   0.01811   0.01029  -0.0593  0.2594  1.0000  -3.2092   0.0000   0.0000   0.0000   0.2957
   7.500   1.1092   0.01841   0.01056  -0.0588  0.2513  1.0000  -3.2919   0.0000   0.0000   0.0000   0.2948
   7.600   1.1175   0.01860   0.01081  -0.0584  0.2426  1.0000  -3.3767   0.0000   0.0000   0.0000   0.2939
   7.700   1.1248   0.01892   0.01105  -0.0578  0.2348  1.0000  -3.4585   0.0000   0.0000   0.0000   0.2930
   7.800   1.1328   0.01921   0.01135  -0.0574  0.2271  1.0000  -3.5422   0.0000   0.0000   0.0000   0.2921
   7.900   1.1408   0.01943   0.01162  -0.0569  0.2192  1.0000  -3.6273   0.0000   0.0000   0.0000   0.2912
   8.000   1.1478   0.01977   0.01188  -0.0563  0.2118  1.0000  -3.7089   0.0000   0.0000   0.0000   0.2902
   8.100   1.1554   0.02007   0.01220  -0.0558  0.2042  1.0000  -3.7923   0.0000   0.0000   0.0000   0.2894
   8.200   1.1630   0.02027   0.01245  -0.0553  0.1960  1.0000  -3.8777   0.0000   0.0000   0.0000   0.2885
   8.300   1.1693   0.02062   0.01272  -0.0547  0.1884  1.0000  -3.9580   0.0000   0.0000   0.0000   0.2875
   8.400   1.1766   0.02090   0.01302  -0.0542  0.1807  1.0000  -4.0420   0.0000   0.0000   0.0000   0.2867
   8.500   1.1839   0.02110   0.01326  -0.0536  0.1726  1.0000  -4.1275   0.0000   0.0000   0.0000   0.2858
   8.600   1.1895   0.02148   0.01356  -0.0529  0.1653  1.0000  -4.2057   0.0000   0.0000   0.0000   0.2849
   8.700   1.1968   0.02175   0.01387  -0.0524  0.1581  1.0000  -4.2900   0.0000   0.0000   0.0000   0.2840
   8.800   1.2040   0.02197   0.01414  -0.0519  0.1508  1.0000  -4.3752   0.0000   0.0000   0.0000   0.2832
   8.900   1.2094   0.02236   0.01451  -0.0511  0.1443  1.0000  -4.4514   0.0000   0.0000   0.0000   0.2822
   9.000   1.2157   0.02272   0.01489  -0.0505  0.1379  1.0000  -4.5302   0.0000   0.0000   0.0000   0.2814
   9.100   1.2230   0.02294   0.01518  -0.0500  0.1311  1.0000  -4.6152   0.0000   0.0000   0.0000   0.2805
   9.200   1.2285   0.02328   0.01549  -0.0493  0.1246  1.0000  -4.6926   0.0000   0.0000   0.0000   0.2797
   9.300   1.2327   0.02379   0.01594  -0.0484  0.1185  1.0000  -4.7605   0.0000   0.0000   0.0000   0.2787
   9.400   1.2403   0.02399   0.01625  -0.0479  0.1122  1.0000  -4.8446   0.0000   0.0000   0.0000   0.2779
   9.500   1.2458   0.02432   0.01659  -0.0472  0.1058  1.0000  -4.9191   0.0000   0.0000   0.0000   0.2770
   9.600   1.2484   0.02489   0.01708  -0.0461  0.0997  1.0000  -4.9770   0.0000   0.0000   0.0000   0.2759
   9.700   1.2548   0.02520   0.01747  -0.0455  0.0933  1.0000  -5.0485   0.0000   0.0000   0.0000   0.2751
   9.800   1.2594   0.02556   0.01784  -0.0447  0.0859  1.0000  -5.1122   0.0000   0.0000   0.0000   0.2742
   9.900   1.2583   0.02628   0.01846  -0.0431  0.0792  1.0000  -5.1443   0.0000   0.0000   0.0000   0.2728
  10.000   1.2637   0.02660   0.01887  -0.0423  0.0703  1.0000  -5.1961   0.0000   0.0000   0.0000   0.2719
  10.100   1.2623   0.02735   0.01950  -0.0408  0.0628  1.0000  -5.2171   0.0000   0.0000   0.0000   0.2706
  10.200   1.2626   0.02808   0.02026  -0.0393  0.0553  1.0000  -5.2246   0.0000   0.0000   0.0000   0.2693
  10.300   1.2635   0.02872   0.02088  -0.0381  0.0495  1.0000  -5.2482   0.0000   0.0000   0.0000   0.2682
  10.400   1.2597   0.02972   0.02181  -0.0364  0.0458  1.0000  -5.2470   0.0000   0.0000   0.0000   0.2668
  10.500   1.2582   0.03066   0.02278  -0.0350  0.0431  1.0000  -5.2445   0.0000   0.0000   0.0000   0.2655
  10.600   1.2605   0.03131   0.02351  -0.0339  0.0411  1.0000  -5.2656   0.0000   0.0000   0.0000   0.2645
  10.700   1.2622   0.03201   0.02427  -0.0329  0.0393  1.0000  -5.3035   0.0000   0.0000   0.0000   0.2635
  10.800   1.2638   0.03272   0.02502  -0.0319  0.0378  1.0000  -5.3487   0.0000   0.0000   0.0000   0.2625
  10.900   1.2651   0.03344   0.02578  -0.0309  0.0365  1.0000  -5.3950   0.0000   0.0000   0.0000   0.2616
  11.000   1.2662   0.03419   0.02657  -0.0300  0.0354  1.0000  -5.4416   0.0000   0.0000   0.0000   0.2607
  11.100   1.2669   0.03500   0.02741  -0.0291  0.0345  1.0000  -5.4858   0.0000   0.0000   0.0000   0.2598
  11.200   1.2672   0.03590   0.02834  -0.0282  0.0336  1.0000  -5.5251   0.0000   0.0000   0.0000   0.2589
  11.300   1.2671   0.03692   0.02938  -0.0273  0.0328  1.0000  -5.5582   0.0000   0.0000   0.0000   0.2581
  11.400   1.2673   0.03811   0.03060  -0.0264  0.0320  1.0000  -5.5845   0.0000   0.0000   0.0000   0.2572
  11.500   1.2682   0.03958   0.03212  -0.0256  0.0312  1.0000  -5.6020   0.0000   0.0000   0.0000   0.2564
  11.600   1.2705   0.04107   0.03368  -0.0249  0.0306  1.0000  -5.6240   0.0000   0.0000   0.0000   0.2557
  11.700   1.2734   0.04191   0.03460  -0.0243  0.0303  1.0000  -5.6738   0.0000   0.0000   0.0000   0.2550
  11.800   1.2760   0.04280   0.03563  -0.0237  0.0300  1.0000  -5.7196   0.0000   0.0000   0.0000   0.2544
  11.900   1.2784   0.04375   0.03667  -0.0231  0.0297  1.0000  -5.7627   0.0000   0.0000   0.0000   0.2537
  12.000   1.2805   0.04475   0.03777  -0.0225  0.0295  1.0000  -5.8039   0.0000   0.0000   0.0000   0.2531
  12.100   1.2822   0.04581   0.03891  -0.0220  0.0292  1.0000  -5.8424   0.0000   0.0000   0.0000   0.2525
  12.200   1.2836   0.04691   0.04011  -0.0214  0.0290  1.0000  -5.8777   0.0000   0.0000   0.0000   0.2519
  12.300   1.2844   0.04806   0.04137  -0.0209  0.0288  1.0000  -5.9096   0.0000   0.0000   0.0000   0.2513
  12.400   1.2847   0.04927   0.04267  -0.0204  0.0286  1.0000  -5.9381   0.0000   0.0000   0.0000   0.2507
  12.500   1.2846   0.05052   0.04403  -0.0199  0.0285  1.0000  -5.9634   0.0000   0.0000   0.0000   0.2502
  12.600   1.2839   0.05183   0.04544  -0.0195  0.0283  1.0000  -5.9852   0.0000   0.0000   0.0000   0.2497
  12.700   1.2827   0.05319   0.04691  -0.0191  0.0282  1.0000  -6.0031   0.0000   0.0000   0.0000   0.2493
  12.800   1.2809   0.05461   0.04843  -0.0187  0.0281  1.0000  -6.0175   0.0000   0.0000   0.0000   0.2488
  12.900   1.2786   0.05609   0.05002  -0.0184  0.0280  1.0000  -6.0281   0.0000   0.0000   0.0000   0.2485
  13.000   1.2756   0.05764   0.05167  -0.0182  0.0280  1.0000  -6.0346   0.0000   0.0000   0.0000   0.2482
  13.100   1.2721   0.05926   0.05340  -0.0181  0.0279  1.0000  -6.0373   0.0000   0.0000   0.0000   0.2480
  13.200   1.2681   0.06094   0.05519  -0.0180  0.0279  1.0000  -6.0367   0.0000   0.0000   0.0000   0.2478
  13.300   1.2636   0.06270   0.05705  -0.0181  0.0279  1.0000  -6.0325   0.0000   0.0000   0.0000   0.2477
  13.400   1.2587   0.06453   0.05899  -0.0182  0.0279  1.0000  -6.0250   0.0000   0.0000   0.0000   0.2477
  13.500   1.2535   0.06644   0.06100  -0.0185  0.0279  1.0000  -6.0143   0.0000   0.0000   0.0000   0.2478
  13.600   1.2478   0.06844   0.06310  -0.0189  0.0279  1.0000  -6.0001   0.0000   0.0000   0.0000   0.2480
  13.700   1.2417   0.07054   0.06530  -0.0194  0.0279  1.0000  -5.9826   0.0000   0.0000   0.0000   0.2483
  13.800   1.2353   0.07273   0.06758  -0.0200  0.0279  1.0000  -5.9617   0.0000   0.0000   0.0000   0.2488
  13.900   1.2285   0.07501   0.06997  -0.0208  0.0280  1.0000  -5.9373   0.0000   0.0000   0.0000   0.2493
  14.000   1.2213   0.07741   0.07246  -0.0217  0.0280  1.0000  -5.9091   0.0000   0.0000   0.0000   0.2500
  14.100   1.2138   0.07990   0.07505  -0.0227  0.0280  1.0000  -5.8772   0.0000   0.0000   0.0000   0.2508
  14.200   1.2059   0.08252   0.07775  -0.0239  0.0281  1.0000  -5.8415   0.0000   0.0000   0.0000   0.2517
  14.300   1.1977   0.08525   0.08058  -0.0253  0.0282  1.0000  -5.8018   0.0000   0.0000   0.0000   0.2528
  14.400   1.1892   0.08813   0.08354  -0.0268  0.0282  1.0000  -5.7578   0.0000   0.0000   0.0000   0.2541
  14.500   1.1804   0.09115   0.08665  -0.0285  0.0283  1.0000  -5.7094   0.0000   0.0000   0.0000   0.2555
  14.600   1.1714   0.09432   0.08990  -0.0303  0.0284  1.0000  -5.6561   0.0000   0.0000   0.0000   0.2571
  14.700   1.1620   0.09766   0.09332  -0.0323  0.0285  1.0000  -5.5976   0.0000   0.0000   0.0000   0.2589
  14.800   1.1523   0.10117   0.09691  -0.0345  0.0286  1.0000  -5.5331   0.0000   0.0000   0.0000   0.2609
  14.900   1.1422   0.10488   0.10070  -0.0368  0.0287  1.0000  -5.4620   0.0000   0.0000   0.0000   0.2631
  15.000   1.1317   0.10879   0.10468  -0.0394  0.0288  1.0000  -5.3832   0.0000   0.0000   0.0000   0.2655


