xflr5 v6.61

 Calculated polar for: SD7037-092-88

 1 1 Reynolds number fixed          Mach number fixed         

 xtrf =   1.000 (top)        1.000 (bottom)
 Mach =   0.000     Re =     0.100 e 6     Ncrit =   9.000

  alpha     CL        CD       CDp       Cm    Top Xtr Bot Xtr   Cpmin    Chinge    XCp    
 ------- -------- --------- --------- -------- ------- ------- -------- --------- ---------
 -10.000  -0.3686   0.11422   0.10903  -0.0279  1.0000  0.0761  -1.4553   0.0000   0.0000   0.0000   0.1674
  -9.900  -0.3656   0.11306   0.10788  -0.0278  1.0000  0.0777  -1.4431   0.0000   0.0000   0.0000   0.1670
  -9.800  -0.3634   0.11194   0.10677  -0.0279  1.0000  0.0793  -1.4376   0.0000   0.0000   0.0000   0.1664
  -9.700  -0.3619   0.11085   0.10570  -0.0281  1.0000  0.0810  -1.4376   0.0000   0.0000   0.0000   0.1655
  -9.600  -0.3610   0.10979   0.10466  -0.0284  1.0000  0.0827  -1.4426   0.0000   0.0000   0.0000   0.1645
  -9.500  -0.3607   0.10879   0.10367  -0.0289  1.0000  0.0844  -1.4528   0.0000   0.0000   0.0000   0.1633
  -9.400  -0.3613   0.10789   0.10280  -0.0295  1.0000  0.0860  -1.4696   0.0000   0.0000   0.0000   0.1617
  -9.300  -0.3633   0.10719   0.10213  -0.0304  1.0000  0.0874  -1.4952   0.0000   0.0000   0.0000   0.1598
  -9.200  -0.3669   0.10676   0.10173  -0.0316  1.0000  0.0886  -1.5300   0.0000   0.0000   0.0000   0.1576
  -9.100  -0.3715   0.10649   0.10151  -0.0329  1.0000  0.0894  -1.5698   0.0000   0.0000   0.0000   0.1554
  -9.000  -0.3764   0.10624   0.10130  -0.0341  1.0000  0.0900  -1.6087   0.0000   0.0000   0.0000   0.1535
  -8.900  -0.3811   0.10592   0.10103  -0.0352  1.0000  0.0903  -1.6436   0.0000   0.0000   0.0000   0.1522
  -8.800  -0.3858   0.10549   0.10064  -0.0360  1.0000  0.0906  -1.6757   0.0000   0.0000   0.0000   0.1514
  -8.700  -0.3908   0.10496   0.10017  -0.0366  1.0000  0.0907  -1.7057   0.0000   0.0000   0.0000   0.1511
  -8.600  -0.3963   0.10438   0.09963  -0.0371  1.0000  0.0909  -1.7342   0.0000   0.0000   0.0000   0.1515
  -8.500  -0.4018   0.10377   0.09907  -0.0374  1.0000  0.0910  -1.7605   0.0000   0.0000   0.0000   0.1522
  -8.400  -0.4067   0.10309   0.09843  -0.0377  1.0000  0.0910  -1.7844   0.0000   0.0000   0.0000   0.1528
  -8.300  -0.3762   0.09523   0.09046  -0.0339  1.0000  0.0945  -1.6508   0.0000   0.0000   0.0000   0.1548
  -8.200  -0.3688   0.09375   0.08897  -0.0326  1.0000  0.0959  -1.6084   0.0000   0.0000   0.0000   0.1563
  -8.100  -0.3650   0.09256   0.08779  -0.0319  1.0000  0.0971  -1.5848   0.0000   0.0000   0.0000   0.1574
  -8.000  -0.3627   0.09149   0.08674  -0.0313  1.0000  0.0983  -1.5704   0.0000   0.0000   0.0000   0.1584
  -7.900  -0.3618   0.09049   0.08575  -0.0309  1.0000  0.0995  -1.5625   0.0000   0.0000   0.0000   0.1594
  -7.800  -0.3619   0.08953   0.08482  -0.0306  1.0000  0.1007  -1.5592   0.0000   0.0000   0.0000   0.1605
  -7.700  -0.3628   0.08860   0.08393  -0.0302  1.0000  0.1020  -1.5596   0.0000   0.0000   0.0000   0.1618
  -7.600  -0.3646   0.08772   0.08308  -0.0299  1.0000  0.1031  -1.5633   0.0000   0.0000   0.0000   0.1632
  -7.500  -0.3674   0.08689   0.08228  -0.0295  1.0000  0.1043  -1.5701   0.0000   0.0000   0.0000   0.1650
  -7.400  -0.3713   0.08612   0.08155  -0.0291  1.0000  0.1054  -1.5798   0.0000   0.0000   0.0000   0.1672
  -7.300  -0.3764   0.08542   0.08089  -0.0285  1.0000  0.1064  -1.5925   0.0000   0.0000   0.0000   0.1699
  -7.200  -0.3826   0.08479   0.08030  -0.0279  1.0000  0.1073  -1.6079   0.0000   0.0000   0.0000   0.1730
  -7.100  -0.3895   0.08416   0.07973  -0.0273  1.0000  0.1082  -1.6261   0.0000   0.0000   0.0000   0.1759
  -7.000  -0.3955   0.08339   0.07900  -0.0275  1.0000  0.1094  -1.6493   0.0000   0.0000   0.0000   0.1766
  -6.900  -0.4024   0.08261   0.07826  -0.0285  1.0000  0.1107  -1.6836   0.0000   0.0000   0.0000   0.1754
  -6.800  -0.4113   0.08198   0.07764  -0.0312  1.0000  0.1122  -1.7444   0.0000   0.0000   0.0000   0.1708
  -6.700  -0.4214   0.08173   0.07735  -0.0353  1.0000  0.1135  -1.8361   0.0000   0.0000   0.0000   0.1630
  -6.600  -0.4279   0.08135   0.07689  -0.0375  1.0000  0.1141  -1.8987   0.0000   0.0000   0.0000   0.1592
  -6.500  -0.4296   0.08076   0.07624  -0.0383  1.0000  0.1144  -1.9271   0.0000   0.0000   0.0000   0.1578
  -6.300  -0.4298   0.07436   0.07003  -0.0358  1.0000  0.1164  -1.8953   0.0000   0.0000   0.0000   0.1639
  -6.200  -0.4269   0.07298   0.06871  -0.0337  1.0000  0.1173  -1.8530   0.0000   0.0000   0.0000   0.1682
  -6.100  -0.4244   0.07192   0.06769  -0.0318  1.0000  0.1183  -1.8160   0.0000   0.0000   0.0000   0.1722
  -6.000  -0.4224   0.07097   0.06677  -0.0303  1.0000  0.1194  -1.7864   0.0000   0.0000   0.0000   0.1754
  -5.900  -0.4206   0.07006   0.06588  -0.0291  1.0000  0.1206  -1.7616   0.0000   0.0000   0.0000   0.1780
  -5.800  -0.4192   0.06913   0.06496  -0.0283  1.0000  0.1220  -1.7430   0.0000   0.0000   0.0000   0.1798
  -5.700  -0.4180   0.06815   0.06399  -0.0278  1.0000  0.1235  -1.7296   0.0000   0.0000   0.0000   0.1810
  -5.600  -0.4169   0.06711   0.06296  -0.0276  1.0000  0.1253  -1.7209   0.0000   0.0000   0.0000   0.1813
  -5.500  -0.4156   0.06599   0.06183  -0.0277  1.0000  0.1275  -1.7173   0.0000   0.0000   0.0000   0.1807
  -5.400  -0.4115   0.06740   0.06267  -0.0369  1.0000  0.1380  -1.8604   0.0000   0.0000   0.0000   0.1579
  -5.300  -0.4135   0.06277   0.05822  -0.0363  1.0000  0.1395  -1.8529   0.0000   0.0000   0.0000   0.1598
  -5.200  -0.4115   0.06092   0.05647  -0.0350  1.0000  0.1405  -1.8209   0.0000   0.0000   0.0000   0.1625
  -5.100  -0.4089   0.05962   0.05524  -0.0337  1.0000  0.1416  -1.7873   0.0000   0.0000   0.0000   0.1651
  -5.000  -0.4059   0.05858   0.05424  -0.0325  1.0000  0.1428  -1.7548   0.0000   0.0000   0.0000   0.1675
  -4.900  -0.4029   0.05764   0.05332  -0.0316  1.0000  0.1443  -1.7252   0.0000   0.0000   0.0000   0.1694
  -4.800  -0.3994   0.05673   0.05243  -0.0308  1.0000  0.1462  -1.6986   0.0000   0.0000   0.0000   0.1706
  -4.700  -0.3956   0.05579   0.05149  -0.0304  1.0000  0.1486  -1.6762   0.0000   0.0000   0.0000   0.1709
  -4.600  -0.3866   0.05472   0.05002  -0.0356  1.0000  0.1637  -1.7279   0.0000   0.0000   0.0000   0.1557
  -4.500  -0.3837   0.05296   0.04835  -0.0347  1.0000  0.1649  -1.6984   0.0000   0.0000   0.0000   0.1573
  -4.400  -0.3800   0.05170   0.04715  -0.0338  1.0000  0.1662  -1.6673   0.0000   0.0000   0.0000   0.1589
  -4.000  -0.3170   0.03581   0.02932  -0.0426  1.0000  0.0714  -2.1824   0.0000   0.0000   0.0000   0.1125
  -3.900  -0.3084   0.03559   0.02911  -0.0418  1.0000  0.0680  -2.1425   0.0000   0.0000   0.0000   0.1112
  -3.800  -0.2999   0.03353   0.02694  -0.0422  1.0000  0.0659  -2.1373   0.0000   0.0000   0.0000   0.1060
  -3.700  -0.2906   0.03204   0.02530  -0.0424  1.0000  0.0640  -2.1273   0.0000   0.0000   0.0000   0.1008
  -3.600  -0.2808   0.03071   0.02378  -0.0425  1.0000  0.0622  -2.1188   0.0000   0.0000   0.0000   0.0954
  -3.500  -0.2707   0.02946   0.02232  -0.0425  1.0000  0.0605  -2.1120   0.0000   0.0000   0.0000   0.0896
  -3.400  -0.2605   0.02830   0.02093  -0.0424  1.0000  0.0590  -2.1055   0.0000   0.0000   0.0000   0.0834
  -3.300  -0.2502   0.02725   0.01965  -0.0423  1.0000  0.0577  -2.0986   0.0000   0.0000   0.0000   0.0771
  -3.200  -0.2401   0.02634   0.01851  -0.0421  1.0000  0.0568  -2.1098   0.0000   0.0000   0.0000   0.0708
  -3.100  -0.2304   0.02555   0.01755  -0.0419  1.0000  0.0562  -2.1138   0.0000   0.0000   0.0000   0.0643
  -3.000  -0.2209   0.02487   0.01674  -0.0416  1.0000  0.0559  -2.1110   0.0000   0.0000   0.0000   0.0578
  -2.900  -0.2116   0.02426   0.01597  -0.0413  1.0000  0.0559  -2.1048   0.0000   0.0000   0.0000   0.0508
  -2.800  -0.2025   0.02372   0.01532  -0.0410  1.0000  0.0561  -2.0953   0.0000   0.0000   0.0000   0.0435
  -2.700  -0.1911   0.02319   0.01470  -0.0411  0.9993  0.0566  -2.0815   0.0000   0.0000   0.0000   0.0308
  -2.600  -0.1735   0.02263   0.01405  -0.0423  0.9966  0.0577  -2.0596   0.0000   0.0000   0.0000   0.0018
  -2.500  -0.1558   0.02216   0.01350  -0.0434  0.9938  0.0593  -2.0362   0.0000   0.0000   0.0000  -0.0337
  -2.400  -0.1375   0.02191   0.01320  -0.0448  0.9912  0.0633  -1.9976   0.0000   0.0000   0.0000  -0.0812
  -2.300  -0.1213   0.02178   0.01298  -0.0458  0.9877  0.0679  -1.9592   0.0000   0.0000   0.0000  -0.1335
  -2.200  -0.1058   0.02106   0.01226  -0.0466  0.9846  0.0725  -1.9458   0.0000   0.0000   0.0000  -0.1970
  -2.100  -0.0896   0.02056   0.01181  -0.0477  0.9814  0.0782  -1.9214   0.0000   0.0000   0.0000  -0.2892
  -2.000  -0.0720   0.02021   0.01145  -0.0488  0.9782  0.0865  -1.9085   0.0000   0.0000   0.0000  -0.4362
  -1.900  -0.0542   0.01955   0.01088  -0.0499  0.9757  0.1075  -1.9262   0.0000   0.0000   0.0000  -0.6799
  -1.800  -0.0378   0.01830   0.01037  -0.0510  0.9739  0.2347  -1.9651   0.0000   0.0000   0.0000  -1.1151
  -1.700  -0.0245   0.01749   0.01054  -0.0519  0.9714  0.4293  -1.9038   0.0000   0.0000   0.0000  -1.8927
  -1.500  -0.0110   0.01646   0.01082  -0.0490  0.9630  0.7632  -1.7962   0.0000   0.0000   0.0000  -4.2580
  -1.400   0.0210   0.01606   0.01061  -0.0521  0.9609  1.0000  -1.6546   0.0000   0.0000   0.0000   2.7488
  -1.300   0.0404   0.01620   0.01057  -0.0539  0.9569  1.0000  -1.5561   0.0000   0.0000   0.0000   1.5930
  -1.200   0.0613   0.01636   0.01056  -0.0558  0.9536  1.0000  -1.4516   0.0000   0.0000   0.0000   1.1671
  -1.100   0.0836   0.01656   0.01060  -0.0581  0.9510  1.0000  -1.3423   0.0000   0.0000   0.0000   0.9487
  -1.000   0.0948   0.01659   0.01053  -0.0583  0.9452  1.0000  -1.2708   0.0000   0.0000   0.0000   0.8675
  -0.900   0.1087   0.01664   0.01048  -0.0589  0.9396  1.0000  -1.1903   0.0000   0.0000   0.0000   0.7939
  -0.800   0.1266   0.01672   0.01045  -0.0603  0.9351  1.0000  -1.0973   0.0000   0.0000   0.0000   0.7275
  -0.700   0.1467   0.01681   0.01043  -0.0620  0.9316  1.0000  -0.9973   0.0000   0.0000   0.0000   0.6737
  -0.600   0.1686   0.01690   0.01040  -0.0641  0.9288  1.0000  -0.8881   0.0000   0.0000   0.0000   0.6307
  -0.500   0.1900   0.01700   0.01040  -0.0660  0.9259  1.0000  -0.7886   0.0000   0.0000   0.0000   0.5979
  -0.400   0.1947   0.01700   0.01035  -0.0650  0.9178  1.0000  -0.7425   0.0000   0.0000   0.0000   0.5837
  -0.300   0.2108   0.01703   0.01031  -0.0659  0.9128  1.0000  -0.6619   0.0000   0.0000   0.0000   0.5625
  -0.200   0.2302   0.01705   0.01026  -0.0674  0.9091  1.0000  -0.5730   0.0000   0.0000   0.0000   0.5425
  -0.100   0.2516   0.01705   0.01019  -0.0693  0.9061  1.0000  -0.5074   0.0000   0.0000   0.0000   0.5249
   0.000   0.2747   0.01703   0.01011  -0.0714  0.9036  1.0000  -0.5255   0.0000   0.0000   0.0000   0.5094
   0.100   0.2835   0.01707   0.01012  -0.0710  0.8969  1.0000  -0.5346   0.0000   0.0000   0.0000   0.4997
   0.200   0.2959   0.01708   0.01008  -0.0712  0.8908  1.0000  -0.5460   0.0000   0.0000   0.0000   0.4898
   0.300   0.3145   0.01703   0.00998  -0.0725  0.8867  1.0000  -0.5615   0.0000   0.0000   0.0000   0.4796
   0.400   0.3359   0.01694   0.00985  -0.0743  0.8836  1.0000  -0.5801   0.0000   0.0000   0.0000   0.4700
   0.500   0.3588   0.01683   0.00969  -0.0763  0.8811  1.0000  -0.6001   0.0000   0.0000   0.0000   0.4613
   0.600   0.3813   0.01670   0.00952  -0.0781  0.8789  1.0000  -0.6201   0.0000   0.0000   0.0000   0.4535
   0.800   0.3991   0.01673   0.00951  -0.0771  0.8645  1.0000  -0.6410   0.0000   0.0000   0.0000   0.4417
   0.900   0.4175   0.01659   0.00935  -0.0782  0.8607  1.0000  -0.6597   0.0000   0.0000   0.0000   0.4356
   1.000   0.4373   0.01642   0.00915  -0.0794  0.8577  1.0000  -0.6800   0.0000   0.0000   0.0000   0.4299
   1.100   0.4576   0.01623   0.00893  -0.0807  0.8551  1.0000  -0.7007   0.0000   0.0000   0.0000   0.4246
   1.200   0.4619   0.01633   0.00902  -0.0794  0.8460  1.0000  -0.7090   0.0000   0.0000   0.0000   0.4201
   1.300   0.4754   0.01624   0.00892  -0.0796  0.8403  1.0000  -0.7246   0.0000   0.0000   0.0000   0.4154
   1.400   0.4922   0.01606   0.00872  -0.0802  0.8362  1.0000  -0.7434   0.0000   0.0000   0.0000   0.4109
   1.500   0.5103   0.01585   0.00850  -0.0810  0.8328  1.0000  -0.7649   0.0000   0.0000   0.0000   0.4066
   1.600   0.5231   0.01577   0.00841  -0.0810  0.8274  1.0000  -0.7819   0.0000   0.0000   0.0000   0.4027
   1.700   0.5311   0.01579   0.00842  -0.0803  0.8190  1.0000  -0.7948   0.0000   0.0000   0.0000   0.3989
   1.800   0.5455   0.01564   0.00826  -0.0805  0.8137  1.0000  -0.8134   0.0000   0.0000   0.0000   0.3951
   1.900   0.5616   0.01543   0.00803  -0.0809  0.8096  1.0000  -0.8338   0.0000   0.0000   0.0000   0.3915
   2.000   0.5750   0.01532   0.00790  -0.0809  0.8041  1.0000  -0.8517   0.0000   0.0000   0.0000   0.3881
   2.100   0.5830   0.01535   0.00793  -0.0801  0.7952  1.0000  -0.8653   0.0000   0.0000   0.0000   0.3849
   2.200   0.5963   0.01521   0.00778  -0.0801  0.7893  1.0000  -0.8856   0.0000   0.0000   0.0000   0.3816
   2.300   0.6116   0.01502   0.00755  -0.0803  0.7846  1.0000  -0.9080   0.0000   0.0000   0.0000   0.3785
   2.400   0.6207   0.01504   0.00757  -0.0797  0.7762  1.0000  -0.9242   0.0000   0.0000   0.0000   0.3756
   2.500   0.6315   0.01499   0.00751  -0.0793  0.7683  1.0000  -0.9422   0.0000   0.0000   0.0000   0.3727
   2.600   0.6452   0.01485   0.00734  -0.0793  0.7624  1.0000  -0.9634   0.0000   0.0000   0.0000   0.3699
   2.700   0.6566   0.01481   0.00732  -0.0790  0.7553  1.0000  -0.9822   0.0000   0.0000   0.0000   0.3673
   2.800   0.6659   0.01484   0.00734  -0.0785  0.7461  1.0000  -0.9989   0.0000   0.0000   0.0000   0.3647
   2.900   0.6786   0.01474   0.00721  -0.0783  0.7391  1.0000  -1.0216   0.0000   0.0000   0.0000   0.3621
   3.000   0.6900   0.01472   0.00716  -0.0780  0.7316  1.0000  -1.0433   0.0000   0.0000   0.0000   0.3597
   3.100   0.6992   0.01477   0.00720  -0.0775  0.7218  1.0000  -1.0626   0.0000   0.0000   0.0000   0.3574
   3.200   0.7113   0.01472   0.00711  -0.0772  0.7143  1.0000  -1.0854   0.0000   0.0000   0.0000   0.3551
   3.300   0.7218   0.01476   0.00712  -0.0769  0.7058  1.0000  -1.1062   0.0000   0.0000   0.0000   0.3529
   3.400   0.7315   0.01481   0.00716  -0.0764  0.6961  1.0000  -1.1263   0.0000   0.0000   0.0000   0.3507
   3.500   0.7435   0.01479   0.00707  -0.0761  0.6884  1.0000  -1.1494   0.0000   0.0000   0.0000   0.3486
   3.600   0.7527   0.01488   0.00717  -0.0756  0.6784  1.0000  -1.1688   0.0000   0.0000   0.0000   0.3466
   3.700   0.7631   0.01492   0.00718  -0.0752  0.6690  1.0000  -1.1922   0.0000   0.0000   0.0000   0.3446
   3.800   0.7745   0.01496   0.00715  -0.0750  0.6611  1.0000  -1.2183   0.0000   0.0000   0.0000   0.3427
   3.900   0.7833   0.01507   0.00728  -0.0744  0.6502  1.0000  -1.2406   0.0000   0.0000   0.0000   0.3409
   4.000   0.7941   0.01512   0.00727  -0.0741  0.6415  1.0000  -1.2663   0.0000   0.0000   0.0000   0.3391
   4.100   0.8037   0.01523   0.00742  -0.0737  0.6315  1.0000  -1.2900   0.0000   0.0000   0.0000   0.3373
   4.200   0.8135   0.01531   0.00748  -0.0732  0.6213  1.0000  -1.3142   0.0000   0.0000   0.0000   0.3356
   4.300   0.8244   0.01540   0.00749  -0.0729  0.6129  1.0000  -1.3403   0.0000   0.0000   0.0000   0.3339
   4.400   0.8331   0.01552   0.00764  -0.0724  0.6016  1.0000  -1.3629   0.0000   0.0000   0.0000   0.3323
   4.500   0.8436   0.01562   0.00766  -0.0720  0.5925  1.0000  -1.3922   0.0000   0.0000   0.0000   0.3306
   4.600   0.8528   0.01575   0.00780  -0.0716  0.5820  1.0000  -1.4225   0.0000   0.0000   0.0000   0.3291
   4.700   0.8625   0.01586   0.00788  -0.0711  0.5718  1.0000  -1.4565   0.0000   0.0000   0.0000   0.3276
   4.800   0.8725   0.01600   0.00796  -0.0707  0.5624  1.0000  -1.4913   0.0000   0.0000   0.0000   0.3261
   4.900   0.8815   0.01613   0.00811  -0.0703  0.5513  1.0000  -1.5240   0.0000   0.0000   0.0000   0.3246
   5.000   0.8919   0.01627   0.00815  -0.0699  0.5424  1.0000  -1.5602   0.0000   0.0000   0.0000   0.3232
   5.100   0.9004   0.01642   0.00834  -0.0694  0.5310  1.0000  -1.5922   0.0000   0.0000   0.0000   0.3218
   5.200   0.9101   0.01656   0.00842  -0.0690  0.5211  1.0000  -1.6274   0.0000   0.0000   0.0000   0.3204
   5.300   0.9192   0.01673   0.00858  -0.0686  0.5105  1.0000  -1.6611   0.0000   0.0000   0.0000   0.3190
   5.400   0.9284   0.01688   0.00870  -0.0681  0.4998  1.0000  -1.6952   0.0000   0.0000   0.0000   0.3177
   5.500   0.9379   0.01707   0.00883  -0.0677  0.4902  1.0000  -1.7305   0.0000   0.0000   0.0000   0.3164
   5.600   0.9466   0.01723   0.00908  -0.0672  0.4789  1.0000  -1.7637   0.0000   0.0000   0.0000   0.3151
   5.700   0.9565   0.01744   0.00917  -0.0668  0.4697  1.0000  -1.8110   0.0000   0.0000   0.0000   0.3139
   5.800   0.9648   0.01761   0.00940  -0.0663  0.4582  1.0000  -1.8802   0.0000   0.0000   0.0000   0.3127
   5.900   0.9740   0.01779   0.00952  -0.0659  0.4482  1.0000  -1.9562   0.0000   0.0000   0.0000   0.3114
   6.000   0.9826   0.01800   0.00974  -0.0654  0.4374  1.0000  -2.0297   0.0000   0.0000   0.0000   0.3103
   6.100   0.9914   0.01819   0.00990  -0.0649  0.4269  1.0000  -2.1052   0.0000   0.0000   0.0000   0.3091
   6.200   1.0004   0.01843   0.01009  -0.0645  0.4170  1.0000  -2.1824   0.0000   0.0000   0.0000   0.3079
   6.300   1.0088   0.01863   0.01031  -0.0640  0.4061  1.0000  -2.2574   0.0000   0.0000   0.0000   0.3068
   6.400   1.0182   0.01891   0.01045  -0.0636  0.3971  1.0000  -2.3387   0.0000   0.0000   0.0000   0.3057
   6.500   1.0261   0.01911   0.01075  -0.0631  0.3859  1.0000  -2.4122   0.0000   0.0000   0.0000   0.3046
   6.600   1.0348   0.01935   0.01091  -0.0626  0.3763  1.0000  -2.4921   0.0000   0.0000   0.0000   0.3035
   6.700   1.0431   0.01961   0.01119  -0.0621  0.3660  1.0000  -2.5692   0.0000   0.0000   0.0000   0.3024
   6.800   1.0514   0.01983   0.01140  -0.0616  0.3559  1.0000  -2.6476   0.0000   0.0000   0.0000   0.3014
   6.900   1.0600   0.02015   0.01163  -0.0612  0.3467  1.0000  -2.7287   0.0000   0.0000   0.0000   0.3004
   7.000   1.0680   0.02038   0.01193  -0.0606  0.3363  1.0000  -2.8056   0.0000   0.0000   0.0000   0.2993
   7.100   1.0766   0.02069   0.01220  -0.0602  0.3276  1.0000  -2.8903   0.0000   0.0000   0.0000   0.2983
   7.200   1.0846   0.02099   0.01254  -0.0597  0.3180  1.0000  -2.9690   0.0000   0.0000   0.0000   0.2973
   7.300   1.0926   0.02124   0.01280  -0.0592  0.3087  1.0000  -3.0494   0.0000   0.0000   0.0000   0.2963
   7.400   1.1011   0.02163   0.01308  -0.0588  0.3001  1.0000  -3.1329   0.0000   0.0000   0.0000   0.2954
   7.500   1.1085   0.02187   0.01342  -0.0582  0.2903  1.0000  -3.2098   0.0000   0.0000   0.0000   0.2944
   7.600   1.1163   0.02217   0.01365  -0.0577  0.2817  1.0000  -3.2923   0.0000   0.0000   0.0000   0.2934
   7.700   1.1241   0.02253   0.01403  -0.0572  0.2729  1.0000  -3.3720   0.0000   0.0000   0.0000   0.2925
   7.800   1.1315   0.02280   0.01433  -0.0566  0.2639  1.0000  -3.4512   0.0000   0.0000   0.0000   0.2915
   7.900   1.1397   0.02323   0.01463  -0.0562  0.2559  1.0000  -3.5364   0.0000   0.0000   0.0000   0.2907
   8.000   1.1468   0.02354   0.01505  -0.0555  0.2474  1.0000  -3.6125   0.0000   0.0000   0.0000   0.2897
   8.100   1.1540   0.02382   0.01535  -0.0549  0.2390  1.0000  -3.6923   0.0000   0.0000   0.0000   0.2887
   8.200   1.1621   0.02435   0.01571  -0.0546  0.2312  1.0000  -3.7779   0.0000   0.0000   0.0000   0.2880
   8.300   1.1685   0.02461   0.01614  -0.0538  0.2232  1.0000  -3.8512   0.0000   0.0000   0.0000   0.2869
   8.400   1.1755   0.02493   0.01646  -0.0532  0.2155  1.0000  -3.9307   0.0000   0.0000   0.0000   0.2860
   8.500   1.1839   0.02557   0.01694  -0.0529  0.2082  1.0000  -4.0165   0.0000   0.0000   0.0000   0.2853
   8.600   1.1904   0.02589   0.01744  -0.0522  0.2011  1.0000  -4.0876   0.0000   0.0000   0.0000   0.2843
   8.700   1.1971   0.02625   0.01782  -0.0515  0.1939  1.0000  -4.1647   0.0000   0.0000   0.0000   0.2834
   8.800   1.2046   0.02683   0.01826  -0.0511  0.1866  1.0000  -4.2482   0.0000   0.0000   0.0000   0.2826
   8.900   1.2102   0.02719   0.01882  -0.0503  0.1795  1.0000  -4.3159   0.0000   0.0000   0.0000   0.2816
   9.000   1.2154   0.02745   0.01912  -0.0495  0.1719  1.0000  -4.3884   0.0000   0.0000   0.0000   0.2806
   9.100   1.2210   0.02792   0.01946  -0.0489  0.1647  1.0000  -4.4667   0.0000   0.0000   0.0000   0.2798
   9.200   1.2257   0.02829   0.01995  -0.0480  0.1575  1.0000  -4.5323   0.0000   0.0000   0.0000   0.2788
   9.300   1.2299   0.02852   0.02024  -0.0471  0.1502  1.0000  -4.6006   0.0000   0.0000   0.0000   0.2778
   9.400   1.2339   0.02892   0.02054  -0.0462  0.1434  1.0000  -4.6723   0.0000   0.0000   0.0000   0.2768
   9.500   1.2379   0.02936   0.02105  -0.0453  0.1363  1.0000  -4.7349   0.0000   0.0000   0.0000   0.2758
   9.600   1.2409   0.02956   0.02133  -0.0443  0.1291  1.0000  -4.7978   0.0000   0.0000   0.0000   0.2748
   9.700   1.2432   0.02991   0.02161  -0.0433  0.1227  1.0000  -4.8612   0.0000   0.0000   0.0000   0.2737
   9.800   1.2465   0.03048   0.02220  -0.0423  0.1160  1.0000  -4.9172   0.0000   0.0000   0.0000   0.2728
   9.900   1.2498   0.03088   0.02270  -0.0413  0.1094  1.0000  -4.9690   0.0000   0.0000   0.0000   0.2717
  10.000   1.2518   0.03135   0.02317  -0.0402  0.1036  1.0000  -5.0181   0.0000   0.0000   0.0000   0.2706
  10.100   1.2538   0.03230   0.02402  -0.0392  0.0971  1.0000  -5.0534   0.0000   0.0000   0.0000   0.2696
  10.200   1.2551   0.03279   0.02466  -0.0378  0.0908  1.0000  -5.0784   0.0000   0.0000   0.0000   0.2684
  10.300   1.2547   0.03333   0.02520  -0.0364  0.0850  1.0000  -5.1029   0.0000   0.0000   0.0000   0.2671
  10.400   1.2546   0.03469   0.02638  -0.0353  0.0782  1.0000  -5.1079   0.0000   0.0000   0.0000   0.2661
  10.500   1.2550   0.03537   0.02724  -0.0338  0.0730  1.0000  -5.1042   0.0000   0.0000   0.0000   0.2648
  10.600   1.2554   0.03612   0.02802  -0.0325  0.0682  1.0000  -5.1098   0.0000   0.0000   0.0000   0.2636
  10.700   1.2552   0.03691   0.02879  -0.0314  0.0647  1.0000  -5.1260   0.0000   0.0000   0.0000   0.2625
  10.800   1.2594   0.03888   0.03064  -0.0309  0.0599  1.0000  -5.1190   0.0000   0.0000   0.0000   0.2619
  10.900   1.2609   0.03954   0.03144  -0.0298  0.0579  1.0000  -5.1449   0.0000   0.0000   0.0000   0.2609
  11.000   1.2625   0.04030   0.03232  -0.0288  0.0557  1.0000  -5.1799   0.0000   0.0000   0.0000   0.2599
  11.100   1.2640   0.04106   0.03316  -0.0279  0.0535  1.0000  -5.2199   0.0000   0.0000   0.0000   0.2590
  11.200   1.2652   0.04179   0.03394  -0.0270  0.0515  1.0000  -5.2646   0.0000   0.0000   0.0000   0.2581
  11.300   1.2661   0.04252   0.03469  -0.0262  0.0498  1.0000  -5.3120   0.0000   0.0000   0.0000   0.2573
  11.400   1.2670   0.04332   0.03549  -0.0254  0.0483  1.0000  -5.3607   0.0000   0.0000   0.0000   0.2565
  11.500   1.2685   0.04434   0.03652  -0.0247  0.0469  1.0000  -5.4066   0.0000   0.0000   0.0000   0.2558
  11.600   1.2723   0.04601   0.03821  -0.0243  0.0454  1.0000  -5.4414   0.0000   0.0000   0.0000   0.2553
  11.700   1.2771   0.04862   0.04092  -0.0241  0.0442  1.0000  -5.4461   0.0000   0.0000   0.0000   0.2550
  11.800   1.2775   0.04965   0.04208  -0.0233  0.0438  1.0000  -5.4727   0.0000   0.0000   0.0000   0.2542
  11.900   1.2776   0.05076   0.04332  -0.0226  0.0435  1.0000  -5.4958   0.0000   0.0000   0.0000   0.2535
  12.000   1.2771   0.05195   0.04470  -0.0218  0.0431  1.0000  -5.5140   0.0000   0.0000   0.0000   0.2527
  12.100   1.2761   0.05320   0.04608  -0.0211  0.0428  1.0000  -5.5289   0.0000   0.0000   0.0000   0.2521
  12.200   1.2744   0.05451   0.04751  -0.0204  0.0426  1.0000  -5.5406   0.0000   0.0000   0.0000   0.2514
  12.300   1.2723   0.05588   0.04900  -0.0198  0.0423  1.0000  -5.5491   0.0000   0.0000   0.0000   0.2508
  12.400   1.2695   0.05731   0.05055  -0.0192  0.0421  1.0000  -5.5541   0.0000   0.0000   0.0000   0.2502
  12.500   1.2662   0.05880   0.05216  -0.0187  0.0419  1.0000  -5.5559   0.0000   0.0000   0.0000   0.2497
  12.600   1.2621   0.06034   0.05383  -0.0183  0.0418  1.0000  -5.5538   0.0000   0.0000   0.0000   0.2493
  12.700   1.2574   0.06195   0.05555  -0.0180  0.0416  1.0000  -5.5482   0.0000   0.0000   0.0000   0.2489
  12.800   1.2522   0.06363   0.05735  -0.0177  0.0415  1.0000  -5.5394   0.0000   0.0000   0.0000   0.2486
  12.900   1.2466   0.06539   0.05921  -0.0176  0.0415  1.0000  -5.5273   0.0000   0.0000   0.0000   0.2484
  13.000   1.2404   0.06723   0.06116  -0.0176  0.0414  1.0000  -5.5121   0.0000   0.0000   0.0000   0.2484
  13.100   1.2338   0.06914   0.06319  -0.0178  0.0414  1.0000  -5.4937   0.0000   0.0000   0.0000   0.2484
  13.200   1.2268   0.07115   0.06531  -0.0180  0.0414  1.0000  -5.4718   0.0000   0.0000   0.0000   0.2485
  13.300   1.2193   0.07327   0.06752  -0.0185  0.0414  1.0000  -5.4467   0.0000   0.0000   0.0000   0.2488
  13.400   1.2115   0.07549   0.06984  -0.0190  0.0414  1.0000  -5.4182   0.0000   0.0000   0.0000   0.2492
  13.500   1.2033   0.07782   0.07228  -0.0198  0.0415  1.0000  -5.3861   0.0000   0.0000   0.0000   0.2498
  13.600   1.1947   0.08028   0.07483  -0.0207  0.0415  1.0000  -5.3504   0.0000   0.0000   0.0000   0.2505
  13.700   1.1857   0.08287   0.07751  -0.0218  0.0416  1.0000  -5.3108   0.0000   0.0000   0.0000   0.2514
  13.800   1.1764   0.08559   0.08032  -0.0231  0.0417  1.0000  -5.2670   0.0000   0.0000   0.0000   0.2525
  13.900   1.1667   0.08846   0.08328  -0.0246  0.0418  1.0000  -5.2189   0.0000   0.0000   0.0000   0.2538
  14.000   1.1567   0.09149   0.08639  -0.0262  0.0420  1.0000  -5.1660   0.0000   0.0000   0.0000   0.2553
  14.100   1.1463   0.09471   0.08969  -0.0281  0.0421  1.0000  -5.1079   0.0000   0.0000   0.0000   0.2569
  14.200   1.1356   0.09812   0.09317  -0.0302  0.0423  1.0000  -5.0441   0.0000   0.0000   0.0000   0.2588
  14.300   1.1245   0.10173   0.09679  -0.0324  0.0425  1.0000  -4.9748   0.0000   0.0000   0.0000   0.2610
  14.400   1.1131   0.10556   0.10069  -0.0349  0.0428  1.0000  -4.8970   0.0000   0.0000   0.0000   0.2634
  14.500   1.1013   0.10964   0.10483  -0.0375  0.0430  1.0000  -4.8112   0.0000   0.0000   0.0000   0.2660
  14.600   1.0891   0.11396   0.10920  -0.0403  0.0433  1.0000  -4.7164   0.0000   0.0000   0.0000   0.2689
  14.700   1.0767   0.11855   0.11383  -0.0432  0.0436  1.0000  -4.6119   0.0000   0.0000   0.0000   0.2720
  14.800   1.0641   0.12338   0.11871  -0.0463  0.0439  1.0000  -4.4974   0.0000   0.0000   0.0000   0.2752
  14.900   1.0517   0.12844   0.12378  -0.0493  0.0442  1.0000  -4.3737   0.0000   0.0000   0.0000   0.2787


