xflr5 v6.61

 Calculated polar for: SD7037-092-88

 1 1 Reynolds number fixed          Mach number fixed         

 xtrf =   1.000 (top)        1.000 (bottom)
 Mach =   0.000     Re =     0.075 e 6     Ncrit =   9.000

  alpha     CL        CD       CDp       Cm    Top Xtr Bot Xtr   Cpmin    Chinge    XCp    
 ------- -------- --------- --------- -------- ------- ------- -------- --------- ---------
 -10.000  -0.3779   0.11940   0.11347  -0.0275  1.0000  0.1118  -1.4303   0.0000   0.0000   0.0000   0.1705
  -9.900  -0.3835   0.11958   0.11369  -0.0289  1.0000  0.1127  -1.4687   0.0000   0.0000   0.0000   0.1681
  -9.800  -0.3894   0.11978   0.11395  -0.0303  1.0000  0.1133  -1.5076   0.0000   0.0000   0.0000   0.1660
  -9.700  -0.3949   0.11984   0.11405  -0.0316  1.0000  0.1137  -1.5436   0.0000   0.0000   0.0000   0.1642
  -9.600  -0.4000   0.11973   0.11399  -0.0327  1.0000  0.1140  -1.5768   0.0000   0.0000   0.0000   0.1626
  -9.500  -0.4046   0.11946   0.11376  -0.0336  1.0000  0.1142  -1.6065   0.0000   0.0000   0.0000   0.1614
  -9.400  -0.4092   0.11909   0.11344  -0.0345  1.0000  0.1143  -1.6350   0.0000   0.0000   0.0000   0.1604
  -9.300  -0.4141   0.11863   0.11303  -0.0352  1.0000  0.1144  -1.6627   0.0000   0.0000   0.0000   0.1598
  -9.200  -0.3728   0.10849   0.10276  -0.0299  1.0000  0.1183  -1.4921   0.0000   0.0000   0.0000   0.1638
  -9.100  -0.3652   0.10674   0.10097  -0.0290  1.0000  0.1201  -1.4592   0.0000   0.0000   0.0000   0.1645
  -9.000  -0.3608   0.10539   0.09962  -0.0286  1.0000  0.1218  -1.4418   0.0000   0.0000   0.0000   0.1647
  -8.900  -0.3579   0.10420   0.09844  -0.0284  1.0000  0.1235  -1.4321   0.0000   0.0000   0.0000   0.1647
  -8.800  -0.3561   0.10309   0.09735  -0.0283  1.0000  0.1253  -1.4279   0.0000   0.0000   0.0000   0.1646
  -8.700  -0.3552   0.10204   0.09633  -0.0283  1.0000  0.1272  -1.4281   0.0000   0.0000   0.0000   0.1643
  -8.600  -0.3553   0.10108   0.09539  -0.0285  1.0000  0.1291  -1.4326   0.0000   0.0000   0.0000   0.1640
  -8.500  -0.3565   0.10022   0.09457  -0.0288  1.0000  0.1311  -1.4425   0.0000   0.0000   0.0000   0.1637
  -8.400  -0.3599   0.09961   0.09399  -0.0292  1.0000  0.1331  -1.4610   0.0000   0.0000   0.0000   0.1632
  -8.300  -0.3668   0.09944   0.09388  -0.0301  1.0000  0.1349  -1.4937   0.0000   0.0000   0.0000   0.1628
  -8.200  -0.3773   0.09971   0.09423  -0.0310  1.0000  0.1361  -1.5374   0.0000   0.0000   0.0000   0.1630
  -8.100  -0.3887   0.09998   0.09458  -0.0315  1.0000  0.1367  -1.5793   0.0000   0.0000   0.0000   0.1643
  -8.000  -0.4000   0.10010   0.09478  -0.0317  1.0000  0.1371  -1.6170   0.0000   0.0000   0.0000   0.1663
  -7.900  -0.4103   0.10000   0.09474  -0.0328  1.0000  0.1374  -1.6577   0.0000   0.0000   0.0000   0.1660
  -7.800  -0.4188   0.09973   0.09455  -0.0345  1.0000  0.1377  -1.7015   0.0000   0.0000   0.0000   0.1637
  -7.700  -0.4265   0.09934   0.09419  -0.0361  1.0000  0.1379  -1.7440   0.0000   0.0000   0.0000   0.1616
  -7.500  -0.3754   0.09009   0.08482  -0.0282  1.0000  0.1437  -1.5235   0.0000   0.0000   0.0000   0.1706
  -7.400  -0.3712   0.08889   0.08363  -0.0273  1.0000  0.1457  -1.5003   0.0000   0.0000   0.0000   0.1721
  -7.300  -0.3705   0.08794   0.08271  -0.0265  1.0000  0.1476  -1.4903   0.0000   0.0000   0.0000   0.1740
  -7.200  -0.3720   0.08712   0.08192  -0.0259  1.0000  0.1495  -1.4880   0.0000   0.0000   0.0000   0.1762
  -7.100  -0.3756   0.08641   0.08125  -0.0252  1.0000  0.1512  -1.4918   0.0000   0.0000   0.0000   0.1789
  -7.000  -0.3808   0.08579   0.08068  -0.0245  1.0000  0.1529  -1.5007   0.0000   0.0000   0.0000   0.1818
  -6.900  -0.3870   0.08519   0.08013  -0.0240  1.0000  0.1547  -1.5147   0.0000   0.0000   0.0000   0.1841
  -6.800  -0.3943   0.08461   0.07960  -0.0245  1.0000  0.1569  -1.5392   0.0000   0.0000   0.0000   0.1844
  -6.700  -0.4074   0.08452   0.07957  -0.0268  1.0000  0.1595  -1.5977   0.0000   0.0000   0.0000   0.1808
  -6.500  -0.4333   0.08451   0.07951  -0.0344  1.0000  0.1623  -1.7610   0.0000   0.0000   0.0000   0.1679
  -6.300  -0.4195   0.07906   0.07422  -0.0275  1.0000  0.1651  -1.6453   0.0000   0.0000   0.0000   0.1814
  -6.200  -0.4145   0.07782   0.07301  -0.0251  1.0000  0.1667  -1.6048   0.0000   0.0000   0.0000   0.1864
  -6.100  -0.4112   0.07678   0.07200  -0.0234  1.0000  0.1685  -1.5765   0.0000   0.0000   0.0000   0.1901
  -6.000  -0.4096   0.07582   0.07105  -0.0223  1.0000  0.1706  -1.5586   0.0000   0.0000   0.0000   0.1926
  -5.900  -0.4091   0.07488   0.07013  -0.0217  1.0000  0.1730  -1.5488   0.0000   0.0000   0.0000   0.1942
  -5.800  -0.4097   0.07392   0.06918  -0.0216  1.0000  0.1759  -1.5470   0.0000   0.0000   0.0000   0.1946
  -5.700  -0.4253   0.07452   0.06956  -0.0318  1.0000  0.1867  -1.6999   0.0000   0.0000   0.0000   0.1728
  -5.600  -0.4229   0.07181   0.06697  -0.0295  1.0000  0.1878  -1.6652   0.0000   0.0000   0.0000   0.1779
  -5.500  -0.4198   0.07014   0.06537  -0.0273  1.0000  0.1889  -1.6305   0.0000   0.0000   0.0000   0.1827
  -5.400  -0.4168   0.06888   0.06416  -0.0253  1.0000  0.1904  -1.5988   0.0000   0.0000   0.0000   0.1871
  -5.300  -0.4141   0.06784   0.06315  -0.0236  1.0000  0.1921  -1.5713   0.0000   0.0000   0.0000   0.1907
  -5.200  -0.4117   0.06688   0.06222  -0.0223  1.0000  0.1944  -1.5490   0.0000   0.0000   0.0000   0.1934
  -5.100  -0.4124   0.06738   0.06243  -0.0299  1.0000  0.2111  -1.6235   0.0000   0.0000   0.0000   0.1754
  -5.000  -0.4109   0.06496   0.06012  -0.0279  1.0000  0.2123  -1.5953   0.0000   0.0000   0.0000   0.1800
  -4.900  -0.4085   0.06338   0.05862  -0.0260  1.0000  0.2136  -1.5660   0.0000   0.0000   0.0000   0.1843
  -4.800  -0.4058   0.06218   0.05747  -0.0243  1.0000  0.2152  -1.5382   0.0000   0.0000   0.0000   0.1881
  -4.700  -0.4029   0.06115   0.05648  -0.0229  1.0000  0.2172  -1.5132   0.0000   0.0000   0.0000   0.1912
  -4.600  -0.3982   0.06121   0.05630  -0.0276  1.0000  0.2360  -1.5376   0.0000   0.0000   0.0000   0.1786
  -4.500  -0.3961   0.05929   0.05448  -0.0259  1.0000  0.2373  -1.5123   0.0000   0.0000   0.0000   0.1826
  -4.400  -0.3935   0.05789   0.05313  -0.0244  1.0000  0.2388  -1.4873   0.0000   0.0000   0.0000   0.1861
  -4.200  -0.3309   0.04225   0.03549  -0.0428  1.0000  0.0921  -2.0658   0.0000   0.0000   0.0000   0.1178
  -4.100  -0.3245   0.04035   0.03368  -0.0425  1.0000  0.0884  -2.0398   0.0000   0.0000   0.0000   0.1160
  -4.000  -0.3171   0.03857   0.03183  -0.0427  1.0000  0.0859  -2.0293   0.0000   0.0000   0.0000   0.1124
  -3.900  -0.3086   0.03696   0.03009  -0.0429  1.0000  0.0833  -2.0250   0.0000   0.0000   0.0000   0.1079
  -3.800  -0.2989   0.03530   0.02822  -0.0432  1.0000  0.0802  -2.0316   0.0000   0.0000   0.0000   0.1024
  -3.700  -0.2877   0.03348   0.02606  -0.0435  1.0000  0.0767  -2.0575   0.0000   0.0000   0.0000   0.0954
  -3.600  -0.2753   0.03188   0.02398  -0.0437  1.0000  0.0733  -2.0935   0.0000   0.0000   0.0000   0.0877
  -3.500  -0.2649   0.03108   0.02293  -0.0435  1.0000  0.0718  -2.0885   0.0000   0.0000   0.0000   0.0822
  -3.400  -0.2552   0.03045   0.02211  -0.0432  1.0000  0.0711  -2.0883   0.0000   0.0000   0.0000   0.0770
  -3.300  -0.2457   0.02980   0.02130  -0.0429  1.0000  0.0707  -2.0837   0.0000   0.0000   0.0000   0.0714
  -3.200  -0.2362   0.02908   0.02044  -0.0427  1.0000  0.0705  -2.0789   0.0000   0.0000   0.0000   0.0652
  -3.100  -0.2266   0.02829   0.01949  -0.0425  1.0000  0.0705  -2.0754   0.0000   0.0000   0.0000   0.0584
  -3.000  -0.2170   0.02726   0.01829  -0.0425  1.0000  0.0712  -2.0729   0.0000   0.0000   0.0000   0.0503
  -2.900  -0.2079   0.02634   0.01732  -0.0424  1.0000  0.0731  -2.0564   0.0000   0.0000   0.0000   0.0420
  -2.800  -0.1996   0.02584   0.01683  -0.0422  1.0000  0.0758  -2.0247   0.0000   0.0000   0.0000   0.0343
  -2.700  -0.1912   0.02550   0.01646  -0.0420  1.0000  0.0790  -1.9959   0.0000   0.0000   0.0000   0.0263
  -2.600  -0.1825   0.02515   0.01606  -0.0417  1.0000  0.0820  -1.9750   0.0000   0.0000   0.0000   0.0175
  -2.500  -0.1735   0.02475   0.01557  -0.0413  1.0000  0.0845  -1.9629   0.0000   0.0000   0.0000   0.0076
  -2.400  -0.1644   0.02432   0.01504  -0.0410  1.0000  0.0865  -1.9568   0.0000   0.0000   0.0000  -0.0035
  -2.300  -0.1552   0.02389   0.01452  -0.0406  1.0000  0.0882  -1.9535   0.0000   0.0000   0.0000  -0.0157
  -2.200  -0.1462   0.02353   0.01406  -0.0401  1.0000  0.0901  -1.9494   0.0000   0.0000   0.0000  -0.0290
  -2.100  -0.1370   0.02288   0.01339  -0.0397  1.0000  0.0928  -1.9511   0.0000   0.0000   0.0000  -0.0448
  -2.000  -0.1284   0.02224   0.01282  -0.0394  1.0000  0.0976  -1.9429   0.0000   0.0000   0.0000  -0.0619
  -1.900  -0.1200   0.02190   0.01252  -0.0390  1.0000  0.1038  -1.9331   0.0000   0.0000   0.0000  -0.0803
  -1.800  -0.1112   0.02161   0.01217  -0.0385  1.0000  0.1128  -1.9384   0.0000   0.0000   0.0000  -0.1015
  -1.700  -0.1022   0.02102   0.01172  -0.0382  1.0000  0.1315  -1.9488   0.0000   0.0000   0.0000  -0.1291
  -1.600  -0.0928   0.02033   0.01129  -0.0380  1.0000  0.1855  -1.9732   0.0000   0.0000   0.0000  -0.1649
  -1.500  -0.0818   0.01904   0.01114  -0.0384  1.0000  0.3609  -1.9681   0.0000   0.0000   0.0000  -0.2256
  -1.400  -0.0772   0.01800   0.01137  -0.0367  1.0000  0.6128  -1.9368   0.0000   0.0000   0.0000  -0.2315
  -1.200  -0.0594   0.01717   0.01120  -0.0349  0.9987  1.0000  -1.8267   0.0000   0.0000   0.0000  -0.3441
  -1.100  -0.0381   0.01753   0.01124  -0.0371  0.9939  1.0000  -1.7303   0.0000   0.0000   0.0000  -0.7340
  -1.000  -0.0172   0.01789   0.01137  -0.0393  0.9895  1.0000  -1.6288   0.0000   0.0000   0.0000  -2.0593
  -0.900   0.0012   0.01812   0.01143  -0.0410  0.9839  1.0000  -1.5345   0.0000   0.0000   0.0000  33.5929
  -0.800   0.0211   0.01843   0.01156  -0.0430  0.9789  1.0000  -1.4348   0.0000   0.0000   0.0000   2.3001
  -0.700   0.0428   0.01880   0.01176  -0.0453  0.9746  1.0000  -1.3290   0.0000   0.0000   0.0000   1.3132
  -0.600   0.0614   0.01908   0.01190  -0.0470  0.9697  1.0000  -1.2343   0.0000   0.0000   0.0000   1.0188
  -0.500   0.0768   0.01923   0.01194  -0.0481  0.9634  1.0000  -1.1507   0.0000   0.0000   0.0000   0.8785
  -0.400   0.0959   0.01947   0.01207  -0.0499  0.9579  1.0000  -1.0556   0.0000   0.0000   0.0000   0.7712
  -0.300   0.1178   0.01977   0.01225  -0.0521  0.9535  1.0000  -0.9514   0.0000   0.0000   0.0000   0.6930
  -0.200   0.1405   0.02011   0.01244  -0.0545  0.9496  1.0000  -0.8428   0.0000   0.0000   0.0000   0.6380
  -0.100   0.1498   0.02014   0.01241  -0.0544  0.9422  1.0000  -0.7828   0.0000   0.0000   0.0000   0.6131
   0.000   0.1669   0.02030   0.01249  -0.0557  0.9362  1.0000  -0.6998   0.0000   0.0000   0.0000   0.5835
   0.100   0.1880   0.02050   0.01261  -0.0577  0.9313  1.0000  -0.6063   0.0000   0.0000   0.0000   0.5564
   0.200   0.2119   0.02074   0.01276  -0.0602  0.9276  1.0000  -0.5131   0.0000   0.0000   0.0000   0.5331
   0.300   0.2217   0.02084   0.01281  -0.0601  0.9206  1.0000  -0.4961   0.0000   0.0000   0.0000   0.5203
   0.400   0.2358   0.02094   0.01286  -0.0608  0.9139  1.0000  -0.5080   0.0000   0.0000   0.0000   0.5068
   0.500   0.2556   0.02105   0.01291  -0.0625  0.9087  1.0000  -0.5238   0.0000   0.0000   0.0000   0.4931
   0.600   0.2791   0.02116   0.01297  -0.0647  0.9048  1.0000  -0.5427   0.0000   0.0000   0.0000   0.4805
   0.700   0.2960   0.02128   0.01305  -0.0658  0.8995  1.0000  -0.5579   0.0000   0.0000   0.0000   0.4709
   0.800   0.3039   0.02136   0.01308  -0.0654  0.8913  1.0000  -0.5670   0.0000   0.0000   0.0000   0.4635
   0.900   0.3225   0.02141   0.01309  -0.0667  0.8859  1.0000  -0.5836   0.0000   0.0000   0.0000   0.4551
   1.000   0.3458   0.02141   0.01306  -0.0688  0.8818  1.0000  -0.6038   0.0000   0.0000   0.0000   0.4471
   1.100   0.3718   0.02138   0.01300  -0.0712  0.8787  1.0000  -0.6269   0.0000   0.0000   0.0000   0.4398
   1.400   0.4134   0.02142   0.01298  -0.0725  0.8590  1.0000  -0.6723   0.0000   0.0000   0.0000   0.4234
   1.500   0.4396   0.02126   0.01281  -0.0749  0.8559  1.0000  -0.6973   0.0000   0.0000   0.0000   0.4182
   1.600   0.4456   0.02139   0.01293  -0.0740  0.8474  1.0000  -0.7065   0.0000   0.0000   0.0000   0.4139
   1.700   0.4605   0.02136   0.01289  -0.0745  0.8408  1.0000  -0.7239   0.0000   0.0000   0.0000   0.4095
   1.800   0.4815   0.02119   0.01273  -0.0759  0.8364  1.0000  -0.7475   0.0000   0.0000   0.0000   0.4053
   1.900   0.5046   0.02095   0.01248  -0.0775  0.8329  1.0000  -0.7733   0.0000   0.0000   0.0000   0.4011
   2.000   0.5190   0.02089   0.01242  -0.0778  0.8270  1.0000  -0.7914   0.0000   0.0000   0.0000   0.3974
   2.100   0.5270   0.02095   0.01248  -0.0771  0.8182  1.0000  -0.8039   0.0000   0.0000   0.0000   0.3938
   2.200   0.5454   0.02075   0.01228  -0.0779  0.8132  1.0000  -0.8260   0.0000   0.0000   0.0000   0.3902
   2.300   0.5666   0.02044   0.01198  -0.0791  0.8094  1.0000  -0.8520   0.0000   0.0000   0.0000   0.3868
   2.400   0.5818   0.02031   0.01185  -0.0793  0.8037  1.0000  -0.8739   0.0000   0.0000   0.0000   0.3835
   2.500   0.5888   0.02039   0.01194  -0.0785  0.7943  1.0000  -0.8875   0.0000   0.0000   0.0000   0.3804
   2.600   0.6062   0.02014   0.01169  -0.0790  0.7889  1.0000  -0.9119   0.0000   0.0000   0.0000   0.3773
   2.700   0.6261   0.01981   0.01136  -0.0798  0.7848  1.0000  -0.9391   0.0000   0.0000   0.0000   0.3743
   2.800   0.6348   0.01986   0.01142  -0.0791  0.7763  1.0000  -0.9546   0.0000   0.0000   0.0000   0.3715
   2.900   0.6467   0.01977   0.01138  -0.0789  0.7684  1.0000  -0.9738   0.0000   0.0000   0.0000   0.3687
   3.000   0.6642   0.01947   0.01107  -0.0792  0.7630  1.0000  -1.0006   0.0000   0.0000   0.0000   0.3660
   3.100   0.6812   0.01920   0.01079  -0.0795  0.7578  1.0000  -1.0288   0.0000   0.0000   0.0000   0.3633
   3.200   0.6868   0.01938   0.01099  -0.0785  0.7471  1.0000  -1.0434   0.0000   0.0000   0.0000   0.3609
   3.300   0.7017   0.01916   0.01077  -0.0785  0.7404  1.0000  -1.0694   0.0000   0.0000   0.0000   0.3583
   3.400   0.7193   0.01885   0.01043  -0.0788  0.7351  1.0000  -1.0989   0.0000   0.0000   0.0000   0.3559
   3.500   0.7248   0.01905   0.01066  -0.0778  0.7238  1.0000  -1.1134   0.0000   0.0000   0.0000   0.3536
   3.600   0.7383   0.01890   0.01049  -0.0776  0.7162  1.0000  -1.1382   0.0000   0.0000   0.0000   0.3513
   3.700   0.7534   0.01872   0.01027  -0.0776  0.7096  1.0000  -1.1650   0.0000   0.0000   0.0000   0.3491
   3.800   0.7602   0.01889   0.01047  -0.0767  0.6985  1.0000  -1.1840   0.0000   0.0000   0.0000   0.3470
   3.900   0.7737   0.01875   0.01030  -0.0765  0.6906  1.0000  -1.2130   0.0000   0.0000   0.0000   0.3449
   4.000   0.7844   0.01878   0.01031  -0.0761  0.6815  1.0000  -1.2381   0.0000   0.0000   0.0000   0.3429
   4.100   0.7940   0.01883   0.01037  -0.0755  0.6713  1.0000  -1.2617   0.0000   0.0000   0.0000   0.3409
   4.200   0.8081   0.01872   0.01026  -0.0753  0.6637  1.0000  -1.2920   0.0000   0.0000   0.0000   0.3389
   4.300   0.8156   0.01890   0.01047  -0.0746  0.6525  1.0000  -1.3125   0.0000   0.0000   0.0000   0.3371
   4.400   0.8272   0.01888   0.01042  -0.0743  0.6432  1.0000  -1.3395   0.0000   0.0000   0.0000   0.3353
   4.500   0.8378   0.01895   0.01047  -0.0738  0.6338  1.0000  -1.3670   0.0000   0.0000   0.0000   0.3335
   4.600   0.8469   0.01905   0.01057  -0.0732  0.6228  1.0000  -1.3946   0.0000   0.0000   0.0000   0.3317
   4.700   0.8599   0.01904   0.01046  -0.0730  0.6145  1.0000  -1.4333   0.0000   0.0000   0.0000   0.3300
   4.800   0.8670   0.01925   0.01073  -0.0722  0.6026  1.0000  -1.4615   0.0000   0.0000   0.0000   0.3284
   4.900   0.8785   0.01928   0.01070  -0.0719  0.5931  1.0000  -1.4993   0.0000   0.0000   0.0000   0.3268
   5.000   0.8872   0.01946   0.01088  -0.0713  0.5824  1.0000  -1.5312   0.0000   0.0000   0.0000   0.3252
   5.100   0.8972   0.01956   0.01095  -0.0708  0.5718  1.0000  -1.5663   0.0000   0.0000   0.0000   0.3237
   5.200   0.9074   0.01969   0.01104  -0.0703  0.5619  1.0000  -1.6019   0.0000   0.0000   0.0000   0.3222
   5.300   0.9161   0.01985   0.01122  -0.0698  0.5504  1.0000  -1.6342   0.0000   0.0000   0.0000   0.3207
   5.400   0.9277   0.01996   0.01120  -0.0694  0.5414  1.0000  -1.6735   0.0000   0.0000   0.0000   0.3193
   5.500   0.9349   0.02018   0.01150  -0.0687  0.5292  1.0000  -1.7028   0.0000   0.0000   0.0000   0.3179
   5.600   0.9458   0.02029   0.01152  -0.0683  0.5194  1.0000  -1.7409   0.0000   0.0000   0.0000   0.3165
   5.700   0.9537   0.02052   0.01188  -0.0677  0.5079  1.0000  -1.7719   0.0000   0.0000   0.0000   0.3152
   5.800   0.9636   0.02067   0.01196  -0.0673  0.4974  1.0000  -1.8288   0.0000   0.0000   0.0000   0.3138
   5.900   0.9723   0.02090   0.01219  -0.0667  0.4867  1.0000  -1.9001   0.0000   0.0000   0.0000   0.3125
   6.000   0.9814   0.02109   0.01236  -0.0662  0.4756  1.0000  -1.9745   0.0000   0.0000   0.0000   0.3113
   6.100   0.9910   0.02132   0.01254  -0.0657  0.4657  1.0000  -2.0521   0.0000   0.0000   0.0000   0.3100
   6.200   0.9991   0.02155   0.01280  -0.0651  0.4542  1.0000  -2.1234   0.0000   0.0000   0.0000   0.3088
   6.300   1.0096   0.02177   0.01288  -0.0648  0.4446  1.0000  -2.2078   0.0000   0.0000   0.0000   0.3076
   6.400   1.0166   0.02203   0.01324  -0.0641  0.4328  1.0000  -2.2750   0.0000   0.0000   0.0000   0.3064
   6.500   1.0266   0.02224   0.01334  -0.0637  0.4230  1.0000  -2.3590   0.0000   0.0000   0.0000   0.3053
   6.600   1.0341   0.02254   0.01371  -0.0630  0.4119  1.0000  -2.4292   0.0000   0.0000   0.0000   0.3041
   6.700   1.0433   0.02278   0.01389  -0.0626  0.4017  1.0000  -2.5100   0.0000   0.0000   0.0000   0.3030
   6.800   1.0518   0.02311   0.01422  -0.0621  0.3918  1.0000  -2.5868   0.0000   0.0000   0.0000   0.3019
   6.900   1.0599   0.02338   0.01450  -0.0615  0.3811  1.0000  -2.6630   0.0000   0.0000   0.0000   0.3008
   7.000   1.0695   0.02370   0.01470  -0.0611  0.3718  1.0000  -2.7484   0.0000   0.0000   0.0000   0.2998
   7.100   1.0764   0.02400   0.01510  -0.0604  0.3608  1.0000  -2.8184   0.0000   0.0000   0.0000   0.2986
   7.200   1.0858   0.02428   0.01533  -0.0600  0.3515  1.0000  -2.9070   0.0000   0.0000   0.0000   0.2976
   7.300   1.0930   0.02465   0.01579  -0.0594  0.3414  1.0000  -2.9791   0.0000   0.0000   0.0000   0.2966
   7.400   1.1013   0.02495   0.01606  -0.0588  0.3317  1.0000  -3.0599   0.0000   0.0000   0.0000   0.2956
   7.500   1.1104   0.02538   0.01642  -0.0585  0.3230  1.0000  -3.1436   0.0000   0.0000   0.0000   0.2947
   7.600   1.1172   0.02573   0.01688  -0.0578  0.3131  1.0000  -3.2150   0.0000   0.0000   0.0000   0.2936
   7.700   1.1264   0.02606   0.01709  -0.0574  0.3043  1.0000  -3.3027   0.0000   0.0000   0.0000   0.2927
   7.800   1.1332   0.02650   0.01761  -0.0567  0.2950  1.0000  -3.3745   0.0000   0.0000   0.0000   0.2917
   7.900   1.1408   0.02681   0.01794  -0.0561  0.2856  1.0000  -3.4530   0.0000   0.0000   0.0000   0.2907
   8.000   1.1499   0.02729   0.01827  -0.0558  0.2772  1.0000  -3.5414   0.0000   0.0000   0.0000   0.2899
   8.100   1.1556   0.02767   0.01882  -0.0549  0.2681  1.0000  -3.6069   0.0000   0.0000   0.0000   0.2888
   8.200   1.1638   0.02803   0.01913  -0.0544  0.2597  1.0000  -3.6903   0.0000   0.0000   0.0000   0.2879
   8.300   1.1718   0.02860   0.01966  -0.0540  0.2517  1.0000  -3.7700   0.0000   0.0000   0.0000   0.2871
   8.400   1.1777   0.02899   0.02017  -0.0532  0.2429  1.0000  -3.8379   0.0000   0.0000   0.0000   0.2860
   8.500   1.1858   0.02936   0.02043  -0.0527  0.2348  1.0000  -3.9241   0.0000   0.0000   0.0000   0.2852
   8.600   1.1924   0.02994   0.02108  -0.0521  0.2269  1.0000  -3.9949   0.0000   0.0000   0.0000   0.2843
   8.700   1.1983   0.03036   0.02158  -0.0513  0.2187  1.0000  -4.0635   0.0000   0.0000   0.0000   0.2833
   8.800   1.2069   0.03085   0.02195  -0.0510  0.2114  1.0000  -4.1494   0.0000   0.0000   0.0000   0.2825
   8.900   1.2138   0.03162   0.02280  -0.0504  0.2043  1.0000  -4.2160   0.0000   0.0000   0.0000   0.2817
   9.000   1.2194   0.03213   0.02351  -0.0495  0.1970  1.0000  -4.2773   0.0000   0.0000   0.0000   0.2807
   9.100   1.2271   0.03257   0.02386  -0.0491  0.1896  1.0000  -4.3588   0.0000   0.0000   0.0000   0.2799
   9.200   1.2336   0.03338   0.02468  -0.0485  0.1824  1.0000  -4.4250   0.0000   0.0000   0.0000   0.2791
   9.300   1.2374   0.03384   0.02530  -0.0474  0.1751  1.0000  -4.4778   0.0000   0.0000   0.0000   0.2780
   9.400   1.2438   0.03422   0.02560  -0.0468  0.1677  1.0000  -4.5533   0.0000   0.0000   0.0000   0.2771
   9.500   1.2505   0.03518   0.02653  -0.0463  0.1606  1.0000  -4.6166   0.0000   0.0000   0.0000   0.2764
   9.600   1.2527   0.03563   0.02718  -0.0451  0.1537  1.0000  -4.6576   0.0000   0.0000   0.0000   0.2752
   9.700   1.2564   0.03578   0.02723  -0.0441  0.1460  1.0000  -4.7267   0.0000   0.0000   0.0000   0.2742
   9.800   1.2595   0.03642   0.02781  -0.0433  0.1382  1.0000  -4.7852   0.0000   0.0000   0.0000   0.2733
   9.900   1.2590   0.03662   0.02818  -0.0418  0.1312  1.0000  -4.8231   0.0000   0.0000   0.0000   0.2720
  10.000   1.2600   0.03671   0.02818  -0.0407  0.1241  1.0000  -4.8836   0.0000   0.0000   0.0000   0.2709
  10.100   1.2623   0.03753   0.02893  -0.0398  0.1169  1.0000  -4.9287   0.0000   0.0000   0.0000   0.2700
  10.200   1.2619   0.03802   0.02961  -0.0384  0.1108  1.0000  -4.9510   0.0000   0.0000   0.0000   0.2687
  10.300   1.2627   0.03847   0.03003  -0.0372  0.1046  1.0000  -4.9875   0.0000   0.0000   0.0000   0.2676
  10.400   1.2669   0.03981   0.03120  -0.0366  0.0975  1.0000  -5.0165   0.0000   0.0000   0.0000   0.2669
  10.500   1.2663   0.04064   0.03228  -0.0351  0.0926  1.0000  -5.0091   0.0000   0.0000   0.0000   0.2656
  10.600   1.2670   0.04148   0.03319  -0.0339  0.0874  1.0000  -5.0144   0.0000   0.0000   0.0000   0.2645
  10.700   1.2691   0.04228   0.03390  -0.0329  0.0828  1.0000  -5.0375   0.0000   0.0000   0.0000   0.2635
  10.800   1.2754   0.04452   0.03609  -0.0327  0.0777  1.0000  -5.0317   0.0000   0.0000   0.0000   0.2631
  10.900   1.2757   0.04555   0.03733  -0.0314  0.0755  1.0000  -5.0213   0.0000   0.0000   0.0000   0.2620
  11.000   1.2763   0.04670   0.03864  -0.0303  0.0732  1.0000  -5.0317   0.0000   0.0000   0.0000   0.2609
  11.100   1.2768   0.04788   0.03995  -0.0291  0.0712  1.0000  -5.0451   0.0000   0.0000   0.0000   0.2599
  11.200   1.2773   0.04903   0.04122  -0.0281  0.0694  1.0000  -5.0625   0.0000   0.0000   0.0000   0.2590
  11.300   1.2778   0.05016   0.04243  -0.0271  0.0678  1.0000  -5.0844   0.0000   0.0000   0.0000   0.2580
  11.400   1.2785   0.05122   0.04355  -0.0262  0.0663  1.0000  -5.1130   0.0000   0.0000   0.0000   0.2572
  11.500   1.2796   0.05226   0.04461  -0.0254  0.0648  1.0000  -5.1493   0.0000   0.0000   0.0000   0.2564
  11.600   1.2816   0.05346   0.04580  -0.0248  0.0632  1.0000  -5.1911   0.0000   0.0000   0.0000   0.2558
  11.700   1.2833   0.05538   0.04774  -0.0244  0.0617  1.0000  -5.2174   0.0000   0.0000   0.0000   0.2553
  11.800   1.2804   0.05783   0.05032  -0.0238  0.0607  1.0000  -5.2054   0.0000   0.0000   0.0000   0.2548
  11.900   1.2749   0.05972   0.05231  -0.0229  0.0602  1.0000  -5.1891   0.0000   0.0000   0.0000   0.2540
  12.000   1.2694   0.06079   0.05351  -0.0218  0.0599  1.0000  -5.1882   0.0000   0.0000   0.0000   0.2530
  12.100   1.2637   0.06197   0.05482  -0.0208  0.0596  1.0000  -5.1842   0.0000   0.0000   0.0000   0.2522
  12.200   1.2577   0.06326   0.05624  -0.0200  0.0593  1.0000  -5.1772   0.0000   0.0000   0.0000   0.2515
  12.300   1.2513   0.06466   0.05776  -0.0193  0.0591  1.0000  -5.1671   0.0000   0.0000   0.0000   0.2509
  12.400   1.2445   0.06617   0.05938  -0.0187  0.0588  1.0000  -5.1539   0.0000   0.0000   0.0000   0.2504
  12.500   1.2373   0.06778   0.06111  -0.0183  0.0587  1.0000  -5.1376   0.0000   0.0000   0.0000   0.2500
  12.600   1.2298   0.06949   0.06294  -0.0180  0.0585  1.0000  -5.1181   0.0000   0.0000   0.0000   0.2497
  12.700   1.2218   0.07132   0.06488  -0.0180  0.0584  1.0000  -5.0952   0.0000   0.0000   0.0000   0.2496
  12.800   1.2136   0.07327   0.06694  -0.0180  0.0584  1.0000  -5.0691   0.0000   0.0000   0.0000   0.2496
  12.900   1.2049   0.07535   0.06911  -0.0183  0.0584  1.0000  -5.0394   0.0000   0.0000   0.0000   0.2498
  13.000   1.1959   0.07756   0.07142  -0.0187  0.0585  1.0000  -5.0060   0.0000   0.0000   0.0000   0.2501
  13.100   1.1865   0.07990   0.07385  -0.0194  0.0586  1.0000  -4.9690   0.0000   0.0000   0.0000   0.2506
  13.200   1.1769   0.08240   0.07644  -0.0202  0.0588  1.0000  -4.9282   0.0000   0.0000   0.0000   0.2513
  13.300   1.1669   0.08506   0.07918  -0.0212  0.0590  1.0000  -4.8833   0.0000   0.0000   0.0000   0.2522
  13.400   1.1567   0.08789   0.08209  -0.0224  0.0592  1.0000  -4.8343   0.0000   0.0000   0.0000   0.2532
  13.500   1.1463   0.09088   0.08515  -0.0238  0.0595  1.0000  -4.7810   0.0000   0.0000   0.0000   0.2545
  13.600   1.1357   0.09406   0.08840  -0.0253  0.0598  1.0000  -4.7233   0.0000   0.0000   0.0000   0.2559
  13.700   1.1251   0.09744   0.09183  -0.0270  0.0601  1.0000  -4.6609   0.0000   0.0000   0.0000   0.2574
  14.000   1.0001   0.13096   0.12570  -0.0519  0.0761  1.0000  -3.5466   0.0000   0.0000   0.0000   0.2860
  14.100   0.9915   0.13574   0.13046  -0.0543  0.0766  1.0000  -3.4449   0.0000   0.0000   0.0000   0.2889
  14.200   0.9844   0.14016   0.13486  -0.0565  0.0770  1.0000  -3.3527   0.0000   0.0000   0.0000   0.2916
  14.300   0.9786   0.14425   0.13892  -0.0585  0.0773  1.0000  -3.2697   0.0000   0.0000   0.0000   0.2939
  14.400   0.9738   0.14807   0.14273  -0.0603  0.0776  1.0000  -3.1944   0.0000   0.0000   0.0000   0.2960
  14.500   0.9700   0.15168   0.14633  -0.0620  0.0778  1.0000  -3.1259   0.0000   0.0000   0.0000   0.2979
  14.600   0.9671   0.15510   0.14973  -0.0635  0.0780  1.0000  -3.0640   0.0000   0.0000   0.0000   0.2996
  14.700   0.9650   0.15836   0.15297  -0.0648  0.0782  1.0000  -3.0114   0.0000   0.0000   0.0000   0.3011
  14.800   0.9638   0.16145   0.15606  -0.0659  0.0784  1.0000  -2.9715   0.0000   0.0000   0.0000   0.3023
  14.900   0.9640   0.16440   0.15901  -0.0667  0.0787  1.0000  -2.9437   0.0000   0.0000   0.0000   0.3031


