xflr5 v6.61

 Calculated polar for: SD7037-092-88

 1 1 Reynolds number fixed          Mach number fixed         

 xtrf =   1.000 (top)        1.000 (bottom)
 Mach =   0.000     Re =     0.300 e 6     Ncrit =   9.000

  alpha     CL        CD       CDp       Cm    Top Xtr Bot Xtr   Cpmin    Chinge    XCp    
 ------- -------- --------- --------- -------- ------- ------- -------- --------- ---------
 -10.000  -0.3735   0.10601   0.10296  -0.0309  1.0000  0.0249  -1.7639   0.0000   0.0000   0.0000   0.1597
  -9.900  -0.3712   0.10491   0.10187  -0.0310  1.0000  0.0251  -1.7457   0.0000   0.0000   0.0000   0.1592
  -9.800  -0.3692   0.10381   0.10078  -0.0310  1.0000  0.0254  -1.7316   0.0000   0.0000   0.0000   0.1586
  -9.700  -0.3674   0.10270   0.09968  -0.0312  1.0000  0.0256  -1.7209   0.0000   0.0000   0.0000   0.1579
  -9.600  -0.3658   0.10158   0.09856  -0.0313  1.0000  0.0259  -1.7131   0.0000   0.0000   0.0000   0.1572
  -9.500  -0.3644   0.10045   0.09744  -0.0315  1.0000  0.0261  -1.7079   0.0000   0.0000   0.0000   0.1565
  -9.400  -0.3632   0.09931   0.09632  -0.0317  1.0000  0.0264  -1.7052   0.0000   0.0000   0.0000   0.1557
  -9.300  -0.3621   0.09816   0.09518  -0.0319  1.0000  0.0267  -1.7046   0.0000   0.0000   0.0000   0.1550
  -9.200  -0.3612   0.09701   0.09404  -0.0321  1.0000  0.0270  -1.7061   0.0000   0.0000   0.0000   0.1542
  -9.100  -0.3605   0.09585   0.09289  -0.0323  1.0000  0.0273  -1.7094   0.0000   0.0000   0.0000   0.1535
  -9.000  -0.3599   0.09468   0.09174  -0.0326  1.0000  0.0276  -1.7147   0.0000   0.0000   0.0000   0.1528
  -8.900  -0.3595   0.09350   0.09057  -0.0328  1.0000  0.0279  -1.7217   0.0000   0.0000   0.0000   0.1521
  -8.800  -0.3593   0.09232   0.08941  -0.0331  1.0000  0.0282  -1.7306   0.0000   0.0000   0.0000   0.1515
  -8.700  -0.3593   0.09114   0.08825  -0.0333  1.0000  0.0286  -1.7414   0.0000   0.0000   0.0000   0.1509
  -8.600  -0.3597   0.08997   0.08709  -0.0335  1.0000  0.0289  -1.7540   0.0000   0.0000   0.0000   0.1505
  -8.500  -0.3603   0.08881   0.08595  -0.0337  1.0000  0.0293  -1.7687   0.0000   0.0000   0.0000   0.1502
  -8.400  -0.3613   0.08765   0.08481  -0.0339  1.0000  0.0296  -1.7855   0.0000   0.0000   0.0000   0.1501
  -8.300  -0.3628   0.08652   0.08371  -0.0340  1.0000  0.0300  -1.8043   0.0000   0.0000   0.0000   0.1503
  -8.200  -0.3648   0.08543   0.08263  -0.0341  1.0000  0.0303  -1.8255   0.0000   0.0000   0.0000   0.1508
  -8.100  -0.3674   0.08438   0.08161  -0.0340  1.0000  0.0306  -1.8484   0.0000   0.0000   0.0000   0.1518
  -8.000  -0.3708   0.08339   0.08064  -0.0338  1.0000  0.0310  -1.8731   0.0000   0.0000   0.0000   0.1532
  -7.900  -0.3750   0.08248   0.07976  -0.0335  1.0000  0.0312  -1.8990   0.0000   0.0000   0.0000   0.1553
  -7.800  -0.3800   0.08166   0.07897  -0.0330  1.0000  0.0315  -1.9241   0.0000   0.0000   0.0000   0.1581
  -7.700  -0.3860   0.08093   0.07826  -0.0322  1.0000  0.0316  -1.9488   0.0000   0.0000   0.0000   0.1615
  -7.600  -0.3929   0.08027   0.07764  -0.0312  1.0000  0.0318  -1.9725   0.0000   0.0000   0.0000   0.1656
  -7.500  -0.4007   0.07968   0.07708  -0.0301  1.0000  0.0318  -1.9948   0.0000   0.0000   0.0000   0.1703
  -7.400  -0.4090   0.07909   0.07652  -0.0289  1.0000  0.0319  -2.0165   0.0000   0.0000   0.0000   0.1749
  -7.300  -0.4158   0.07829   0.07574  -0.0283  1.0000  0.0320  -2.0419   0.0000   0.0000   0.0000   0.1776
  -7.200  -0.4206   0.07722   0.07469  -0.0286  1.0000  0.0322  -2.0730   0.0000   0.0000   0.0000   0.1779
  -7.100  -0.4245   0.07606   0.07355  -0.0292  1.0000  0.0324  -2.1059   0.0000   0.0000   0.0000   0.1773
  -7.000  -0.4265   0.07495   0.07245  -0.0299  1.0000  0.0327  -2.1341   0.0000   0.0000   0.0000   0.1759
  -6.900  -0.4279   0.07377   0.07127  -0.0308  1.0000  0.0329  -2.1632   0.0000   0.0000   0.0000   0.1741
  -6.800  -0.4289   0.07248   0.06997  -0.0318  1.0000  0.0331  -2.1935   0.0000   0.0000   0.0000   0.1721
  -6.700  -0.4178   0.06986   0.06730  -0.0364  0.9985  0.0334  -2.2412   0.0000   0.0000   0.0000   0.1591
  -6.600  -0.4056   0.06690   0.06427  -0.0410  0.9965  0.0335  -2.2942   0.0000   0.0000   0.0000   0.1449
  -6.500  -0.3943   0.06406   0.06134  -0.0451  0.9944  0.0336  -2.3454   0.0000   0.0000   0.0000   0.1317
  -6.400  -0.3830   0.06132   0.05850  -0.0487  0.9926  0.0337  -2.3927   0.0000   0.0000   0.0000   0.1187
  -6.300  -0.3842   0.05356   0.05057  -0.0548  0.9900  0.0345  -2.6324   0.0000   0.0000   0.0000   0.1030
  -6.200  -0.3814   0.05010   0.04706  -0.0569  0.9875  0.0354  -2.6628   0.0000   0.0000   0.0000   0.0967
  -6.100  -0.3730   0.04866   0.04562  -0.0579  0.9855  0.0361  -2.6108   0.0000   0.0000   0.0000   0.0906
  -6.000  -0.3631   0.04774   0.04471  -0.0587  0.9838  0.0368  -2.5386   0.0000   0.0000   0.0000   0.0841
  -5.900  -0.3524   0.04674   0.04368  -0.0598  0.9820  0.0375  -2.4749   0.0000   0.0000   0.0000   0.0762
  -5.800  -0.3409   0.04558   0.04248  -0.0612  0.9803  0.0384  -2.4224   0.0000   0.0000   0.0000   0.0664
  -5.700  -0.3286   0.04424   0.04109  -0.0628  0.9787  0.0395  -2.3810   0.0000   0.0000   0.0000   0.0546
  -5.600  -0.3155   0.04274   0.03951  -0.0646  0.9773  0.0408  -2.3495   0.0000   0.0000   0.0000   0.0408
  -5.500  -0.3015   0.04109   0.03775  -0.0666  0.9759  0.0424  -2.3291   0.0000   0.0000   0.0000   0.0248
  -5.400  -0.2867   0.03941   0.03593  -0.0686  0.9747  0.0443  -2.3178   0.0000   0.0000   0.0000   0.0062
  -5.300  -0.2692   0.03850   0.03486  -0.0701  0.9737  0.0471  -2.2942   0.0000   0.0000   0.0000  -0.0154
  -5.200  -0.2457   0.04081   0.03695  -0.0710  0.9729  0.0496  -2.1882   0.0000   0.0000   0.0000  -0.0440
  -5.100  -0.2497   0.03439   0.03021  -0.0725  0.9685  0.0515  -2.3485   0.0000   0.0000   0.0000  -0.0454
  -5.000  -0.2422   0.03249   0.02830  -0.0732  0.9659  0.0532  -2.2999   0.0000   0.0000   0.0000  -0.0573
  -4.900  -0.2309   0.03179   0.02767  -0.0737  0.9640  0.0546  -2.2082   0.0000   0.0000   0.0000  -0.0745
  -4.800  -0.2187   0.03109   0.02696  -0.0744  0.9621  0.0561  -2.1289   0.0000   0.0000   0.0000  -0.0957
  -4.700  -0.2056   0.03022   0.02603  -0.0753  0.9604  0.0576  -2.0644   0.0000   0.0000   0.0000  -0.1219
  -4.600  -0.1916   0.02923   0.02494  -0.0762  0.9588  0.0590  -2.0102   0.0000   0.0000   0.0000  -0.1538
  -4.500  -0.1741   0.02347   0.01811  -0.0759  0.9573  0.0352  -2.4177   0.0000   0.0000   0.0000  -0.1932
  -4.400  -0.1599   0.02183   0.01640  -0.0765  0.9562  0.0308  -2.4041   0.0000   0.0000   0.0000  -0.2365
  -4.300  -0.1456   0.02001   0.01430  -0.0772  0.9552  0.0286  -2.4167   0.0000   0.0000   0.0000  -0.2889
  -4.200  -0.1305   0.01833   0.01231  -0.0777  0.9544  0.0264  -2.4442   0.0000   0.0000   0.0000  -0.3547
  -4.100  -0.1147   0.01731   0.01108  -0.0783  0.9536  0.0252  -2.4199   0.0000   0.0000   0.0000  -0.4437
  -4.000  -0.0983   0.01671   0.01037  -0.0792  0.9528  0.0246  -2.3764   0.0000   0.0000   0.0000  -0.5678
  -3.900  -0.0817   0.01621   0.00977  -0.0801  0.9521  0.0243  -2.3317   0.0000   0.0000   0.0000  -0.7452
  -3.800  -0.0652   0.01574   0.00924  -0.0811  0.9515  0.0241  -2.2830   0.0000   0.0000   0.0000  -1.0126
  -3.700  -0.0489   0.01526   0.00871  -0.0821  0.9508  0.0240  -2.2355   0.0000   0.0000   0.0000  -1.4495
  -3.600  -0.0385   0.01486   0.00827  -0.0818  0.9482  0.0240  -2.1999   0.0000   0.0000   0.0000  -1.9055
  -3.500  -0.0308   0.01449   0.00788  -0.0810  0.9442  0.0240  -2.1705   0.0000   0.0000   0.0000  -2.4176
  -3.400  -0.0190   0.01405   0.00740  -0.0811  0.9415  0.0241  -2.1356   0.0000   0.0000   0.0000  -4.0737
  -3.300  -0.0060   0.01360   0.00692  -0.0814  0.9393  0.0244  -2.0995   0.0000   0.0000   0.0000  -13.3686
  -3.200   0.0075   0.01318   0.00647  -0.0818  0.9374  0.0248  -2.0615   0.0000   0.0000   0.0000  11.2432
  -3.100   0.0216   0.01280   0.00607  -0.0823  0.9355  0.0256  -2.0193   0.0000   0.0000   0.0000   4.1043
  -3.000   0.0360   0.01249   0.00574  -0.0828  0.9338  0.0266  -1.9710   0.0000   0.0000   0.0000   2.5768
  -2.900   0.0505   0.01223   0.00546  -0.0834  0.9322  0.0281  -1.9205   0.0000   0.0000   0.0000   1.9179
  -2.800   0.0652   0.01199   0.00520  -0.0840  0.9307  0.0302  -1.8736   0.0000   0.0000   0.0000   1.5498
  -2.700   0.0800   0.01178   0.00496  -0.0846  0.9292  0.0329  -1.8299   0.0000   0.0000   0.0000   1.3164
  -2.600   0.0944   0.01139   0.00456  -0.0850  0.9277  0.0424  -1.8206   0.0000   0.0000   0.0000   1.1586
  -2.500   0.1051   0.01086   0.00431  -0.0850  0.9250  0.1028  -1.8087   0.0000   0.0000   0.0000   1.0652
  -2.400   0.1125   0.01055   0.00422  -0.0843  0.9204  0.1571  -1.7601   0.0000   0.0000   0.0000   1.0057
  -2.300   0.1225   0.01027   0.00413  -0.0842  0.9168  0.2079  -1.6949   0.0000   0.0000   0.0000   0.9422
  -2.100   0.1453   0.00973   0.00395  -0.0844  0.9109  0.3105  -1.5457   0.0000   0.0000   0.0000   0.8341
  -2.000   0.1571   0.00944   0.00386  -0.0845  0.9083  0.3693  -1.4680   0.0000   0.0000   0.0000   0.7909
  -1.900   0.1690   0.00919   0.00377  -0.0846  0.9059  0.4214  -1.3896   0.0000   0.0000   0.0000   0.7531
  -1.800   0.1807   0.00895   0.00370  -0.0846  0.9037  0.4725  -1.3120   0.0000   0.0000   0.0000   0.7205
  -1.700   0.1902   0.00874   0.00367  -0.0842  0.9004  0.5308  -1.2420   0.0000   0.0000   0.0000   0.6946
  -1.600   0.1976   0.00849   0.00367  -0.0833  0.8955  0.5973  -1.1791   0.0000   0.0000   0.0000   0.6734
  -1.500   0.2058   0.00825   0.00366  -0.0825  0.8913  0.6651  -1.1137   0.0000   0.0000   0.0000   0.6523
  -1.400   0.2144   0.00803   0.00364  -0.0817  0.8875  0.7236  -1.0470   0.0000   0.0000   0.0000   0.6320
  -1.300   0.2234   0.00786   0.00360  -0.0808  0.8842  0.7688  -0.9783   0.0000   0.0000   0.0000   0.6126
  -1.100   0.2421   0.00761   0.00347  -0.0791  0.8783  0.8368  -0.8422   0.0000   0.0000   0.0000   0.5775
  -1.000   0.2490   0.00753   0.00347  -0.0779  0.8730  0.8687  -0.7852   0.0000   0.0000   0.0000   0.5633
  -0.900   0.2578   0.00745   0.00342  -0.0770  0.8681  0.9008  -0.7227   0.0000   0.0000   0.0000   0.5489
  -0.800   0.2715   0.00736   0.00334  -0.0771  0.8641  0.9299  -0.6463   0.0000   0.0000   0.0000   0.5341
  -0.700   0.2888   0.00728   0.00324  -0.0781  0.8607  0.9524  -0.5611   0.0000   0.0000   0.0000   0.5203
  -0.600   0.3081   0.00721   0.00312  -0.0796  0.8575  0.9706  -0.5381   0.0000   0.0000   0.0000   0.5080
  -0.500   0.3294   0.00713   0.00298  -0.0815  0.8545  0.9854  -0.5545   0.0000   0.0000   0.0000   0.4971
  -0.400   0.3500   0.00708   0.00291  -0.0835  0.8496  0.9997  -0.5712   0.0000   0.0000   0.0000   0.4881
  -0.300   0.3589   0.00707   0.00287  -0.0830  0.8432  1.0000  -0.5809   0.0000   0.0000   0.0000   0.4806
  -0.200   0.3683   0.00705   0.00279  -0.0825  0.8375  1.0000  -0.5910   0.0000   0.0000   0.0000   0.4734
  -0.100   0.3783   0.00703   0.00270  -0.0822  0.8325  1.0000  -0.6016   0.0000   0.0000   0.0000   0.4663
   0.000   0.3878   0.00703   0.00266  -0.0818  0.8264  1.0000  -0.6122   0.0000   0.0000   0.0000   0.4598
   0.100   0.3973   0.00703   0.00263  -0.0813  0.8194  1.0000  -0.6233   0.0000   0.0000   0.0000   0.4537
   0.200   0.4073   0.00702   0.00257  -0.0810  0.8132  1.0000  -0.6349   0.0000   0.0000   0.0000   0.4477
   0.300   0.4176   0.00702   0.00250  -0.0807  0.8076  1.0000  -0.6469   0.0000   0.0000   0.0000   0.4419
   0.400   0.4274   0.00703   0.00249  -0.0803  0.8004  1.0000  -0.6583   0.0000   0.0000   0.0000   0.4367
   0.500   0.4374   0.00704   0.00245  -0.0800  0.7930  1.0000  -0.6700   0.0000   0.0000   0.0000   0.4315
   0.600   0.4477   0.00705   0.00240  -0.0797  0.7863  1.0000  -0.6827   0.0000   0.0000   0.0000   0.4265
   0.700   0.4580   0.00707   0.00238  -0.0795  0.7795  1.0000  -0.6959   0.0000   0.0000   0.0000   0.4219
   0.800   0.4681   0.00709   0.00237  -0.0792  0.7716  1.0000  -0.7089   0.0000   0.0000   0.0000   0.4174
   0.900   0.4784   0.00712   0.00233  -0.0789  0.7641  1.0000  -0.7222   0.0000   0.0000   0.0000   0.4131
   1.000   0.4887   0.00715   0.00231  -0.0786  0.7569  1.0000  -0.7356   0.0000   0.0000   0.0000   0.4090
   1.100   0.4989   0.00718   0.00231  -0.0784  0.7485  1.0000  -0.7489   0.0000   0.0000   0.0000   0.4051
   1.200   0.5092   0.00722   0.00230  -0.0781  0.7406  1.0000  -0.7625   0.0000   0.0000   0.0000   0.4013
   1.300   0.5196   0.00727   0.00229  -0.0778  0.7332  1.0000  -0.7776   0.0000   0.0000   0.0000   0.3977
   1.400   0.5299   0.00731   0.00230  -0.0776  0.7246  1.0000  -0.7925   0.0000   0.0000   0.0000   0.3943
   1.500   0.5401   0.00736   0.00229  -0.0774  0.7163  1.0000  -0.8076   0.0000   0.0000   0.0000   0.3909
   1.600   0.5505   0.00742   0.00229  -0.0771  0.7086  1.0000  -0.8228   0.0000   0.0000   0.0000   0.3877
   1.700   0.5608   0.00747   0.00231  -0.0769  0.6999  1.0000  -0.8380   0.0000   0.0000   0.0000   0.3847
   1.800   0.5711   0.00753   0.00231  -0.0766  0.6915  1.0000  -0.8532   0.0000   0.0000   0.0000   0.3817
   1.900   0.5814   0.00760   0.00233  -0.0764  0.6835  1.0000  -0.8685   0.0000   0.0000   0.0000   0.3788
   2.000   0.5917   0.00765   0.00235  -0.0762  0.6747  1.0000  -0.8848   0.0000   0.0000   0.0000   0.3761
   2.100   0.6019   0.00772   0.00237  -0.0760  0.6662  1.0000  -0.9021   0.0000   0.0000   0.0000   0.3734
   2.200   0.6122   0.00779   0.00239  -0.0758  0.6581  1.0000  -0.9196   0.0000   0.0000   0.0000   0.3709
   2.300   0.6225   0.00785   0.00242  -0.0755  0.6492  1.0000  -0.9371   0.0000   0.0000   0.0000   0.3684
   2.400   0.6327   0.00794   0.00244  -0.0753  0.6407  1.0000  -0.9545   0.0000   0.0000   0.0000   0.3660
   2.500   0.6430   0.00800   0.00248  -0.0751  0.6322  1.0000  -0.9722   0.0000   0.0000   0.0000   0.3637
   2.600   0.6533   0.00807   0.00254  -0.0749  0.6232  1.0000  -0.9898   0.0000   0.0000   0.0000   0.3614
   2.700   0.6633   0.00817   0.00256  -0.0746  0.6149  1.0000  -1.0074   0.0000   0.0000   0.0000   0.3592
   2.800   0.6737   0.00823   0.00261  -0.0745  0.6064  1.0000  -1.0272   0.0000   0.0000   0.0000   0.3572
   2.900   0.6839   0.00831   0.00265  -0.0742  0.5974  1.0000  -1.0476   0.0000   0.0000   0.0000   0.3551
   3.000   0.6940   0.00841   0.00269  -0.0740  0.5890  1.0000  -1.0679   0.0000   0.0000   0.0000   0.3531
   3.100   0.7043   0.00847   0.00274  -0.0738  0.5798  1.0000  -1.0885   0.0000   0.0000   0.0000   0.3512
   3.200   0.7143   0.00857   0.00278  -0.0736  0.5706  1.0000  -1.1090   0.0000   0.0000   0.0000   0.3493
   3.300   0.7245   0.00866   0.00283  -0.0733  0.5622  1.0000  -1.1297   0.0000   0.0000   0.0000   0.3475
   3.400   0.7347   0.00873   0.00289  -0.0732  0.5534  1.0000  -1.1505   0.0000   0.0000   0.0000   0.3457
   3.500   0.7447   0.00884   0.00294  -0.0729  0.5448  1.0000  -1.1712   0.0000   0.0000   0.0000   0.3439
   3.600   0.7549   0.00893   0.00300  -0.0727  0.5363  1.0000  -1.1939   0.0000   0.0000   0.0000   0.3423
   3.700   0.7650   0.00901   0.00306  -0.0725  0.5268  1.0000  -1.2182   0.0000   0.0000   0.0000   0.3406
   3.900   0.7850   0.00921   0.00319  -0.0721  0.5086  1.0000  -1.2668   0.0000   0.0000   0.0000   0.3375
   4.000   0.7949   0.00932   0.00325  -0.0718  0.4991  1.0000  -1.2911   0.0000   0.0000   0.0000   0.3359
   4.100   0.8049   0.00944   0.00336  -0.0716  0.4906  1.0000  -1.3156   0.0000   0.0000   0.0000   0.3344
   4.200   0.8151   0.00952   0.00343  -0.0714  0.4817  1.0000  -1.3405   0.0000   0.0000   0.0000   0.3330
   4.300   0.8248   0.00965   0.00351  -0.0711  0.4727  1.0000  -1.3650   0.0000   0.0000   0.0000   0.3315
   4.400   0.8348   0.00975   0.00359  -0.0709  0.4640  1.0000  -1.3899   0.0000   0.0000   0.0000   0.3302
   4.500   0.8448   0.00985   0.00367  -0.0707  0.4542  1.0000  -1.4210   0.0000   0.0000   0.0000   0.3288
   4.600   0.8542   0.01001   0.00375  -0.0704  0.4449  1.0000  -1.4548   0.0000   0.0000   0.0000   0.3274
   4.700   0.8644   0.01009   0.00384  -0.0702  0.4354  1.0000  -1.4901   0.0000   0.0000   0.0000   0.3262
   4.800   0.8740   0.01022   0.00392  -0.0700  0.4258  1.0000  -1.5246   0.0000   0.0000   0.0000   0.3249
   4.900   0.8838   0.01035   0.00402  -0.0697  0.4173  1.0000  -1.5596   0.0000   0.0000   0.0000   0.3236
   5.000   0.8938   0.01045   0.00411  -0.0695  0.4082  1.0000  -1.5951   0.0000   0.0000   0.0000   0.3224
   5.100   0.9032   0.01061   0.00421  -0.0692  0.3991  1.0000  -1.6298   0.0000   0.0000   0.0000   0.3212
   5.200   0.9131   0.01072   0.00432  -0.0690  0.3901  1.0000  -1.6657   0.0000   0.0000   0.0000   0.3200
   5.300   0.9227   0.01085   0.00442  -0.0688  0.3802  1.0000  -1.7012   0.0000   0.0000   0.0000   0.3188
   5.400   0.9321   0.01101   0.00453  -0.0685  0.3710  1.0000  -1.7402   0.0000   0.0000   0.0000   0.3177
   5.500   0.9419   0.01113   0.00467  -0.0683  0.3613  1.0000  -1.7817   0.0000   0.0000   0.0000   0.3166
   5.600   0.9511   0.01130   0.00479  -0.0680  0.3519  1.0000  -1.8433   0.0000   0.0000   0.0000   0.3154
   5.700   0.9609   0.01142   0.00491  -0.0678  0.3436  1.0000  -1.9213   0.0000   0.0000   0.0000   0.3144
   5.800   0.9705   0.01156   0.00503  -0.0675  0.3347  1.0000  -1.9999   0.0000   0.0000   0.0000   0.3133
   5.900   0.9794   0.01176   0.00517  -0.0672  0.3261  1.0000  -2.0773   0.0000   0.0000   0.0000   0.3122
   6.000   0.9894   0.01187   0.00529  -0.0670  0.3178  1.0000  -2.1596   0.0000   0.0000   0.0000   0.3112
   6.100   0.9987   0.01203   0.00543  -0.0667  0.3085  1.0000  -2.2402   0.0000   0.0000   0.0000   0.3102
   6.200   1.0077   0.01222   0.00557  -0.0664  0.2995  1.0000  -2.3209   0.0000   0.0000   0.0000   0.3092
   6.300   1.0173   0.01236   0.00570  -0.0661  0.2897  1.0000  -2.4047   0.0000   0.0000   0.0000   0.3082
   6.400   1.0258   0.01258   0.00585  -0.0658  0.2798  1.0000  -2.4854   0.0000   0.0000   0.0000   0.3072
   6.500   1.0355   0.01271   0.00599  -0.0655  0.2709  1.0000  -2.5713   0.0000   0.0000   0.0000   0.3062
   6.600   1.0445   0.01290   0.00614  -0.0652  0.2616  1.0000  -2.6555   0.0000   0.0000   0.0000   0.3053
   6.700   1.0533   0.01310   0.00630  -0.0649  0.2527  1.0000  -2.7394   0.0000   0.0000   0.0000   0.3043
   6.800   1.0627   0.01325   0.00644  -0.0646  0.2437  1.0000  -2.8272   0.0000   0.0000   0.0000   0.3034
   6.900   1.0711   0.01348   0.00661  -0.0643  0.2344  1.0000  -2.9114   0.0000   0.0000   0.0000   0.3025
   7.000   1.0804   0.01364   0.00680  -0.0640  0.2260  1.0000  -3.0031   0.0000   0.0000   0.0000   0.3016
   7.100   1.0893   0.01383   0.00697  -0.0637  0.2167  1.0000  -3.0916   0.0000   0.0000   0.0000   0.3007
   7.200   1.0975   0.01408   0.00715  -0.0633  0.2077  1.0000  -3.1772   0.0000   0.0000   0.0000   0.2998
   7.300   1.1070   0.01422   0.00731  -0.0630  0.1997  1.0000  -3.2693   0.0000   0.0000   0.0000   0.2989
   7.400   1.1154   0.01445   0.00749  -0.0627  0.1914  1.0000  -3.3574   0.0000   0.0000   0.0000   0.2980
   7.500   1.1239   0.01468   0.00769  -0.0623  0.1841  1.0000  -3.4457   0.0000   0.0000   0.0000   0.2972
   7.600   1.1332   0.01483   0.00786  -0.0620  0.1773  1.0000  -3.5389   0.0000   0.0000   0.0000   0.2963
   7.700   1.1416   0.01505   0.00805  -0.0617  0.1700  1.0000  -3.6286   0.0000   0.0000   0.0000   0.2955
   7.800   1.1495   0.01532   0.00828  -0.0612  0.1627  1.0000  -3.7158   0.0000   0.0000   0.0000   0.2946
   7.900   1.1589   0.01546   0.00846  -0.0610  0.1572  1.0000  -3.8110   0.0000   0.0000   0.0000   0.2938
   8.000   1.1674   0.01567   0.00865  -0.0606  0.1503  1.0000  -3.9028   0.0000   0.0000   0.0000   0.2930
   8.100   1.1749   0.01597   0.00889  -0.0601  0.1424  1.0000  -3.9898   0.0000   0.0000   0.0000   0.2921
   8.200   1.1839   0.01614   0.00908  -0.0598  0.1360  1.0000  -4.0847   0.0000   0.0000   0.0000   0.2914
   8.300   1.1921   0.01637   0.00928  -0.0595  0.1282  1.0000  -4.1769   0.0000   0.0000   0.0000   0.2906
   8.400   1.1992   0.01669   0.00953  -0.0589  0.1203  1.0000  -4.2630   0.0000   0.0000   0.0000   0.2897
   8.500   1.2080   0.01687   0.00974  -0.0586  0.1147  1.0000  -4.3578   0.0000   0.0000   0.0000   0.2889
   8.600   1.2161   0.01710   0.00995  -0.0582  0.1079  1.0000  -4.4495   0.0000   0.0000   0.0000   0.2882
   8.700   1.2231   0.01743   0.01025  -0.0577  0.1005  1.0000  -4.5343   0.0000   0.0000   0.0000   0.2873
   8.800   1.2312   0.01765   0.01048  -0.0573  0.0949  1.0000  -4.6257   0.0000   0.0000   0.0000   0.2865
   8.900   1.2391   0.01789   0.01073  -0.0568  0.0889  1.0000  -4.7152   0.0000   0.0000   0.0000   0.2857
   9.000   1.2460   0.01822   0.01100  -0.0563  0.0823  1.0000  -4.7991   0.0000   0.0000   0.0000   0.2849
   9.100   1.2534   0.01849   0.01128  -0.0558  0.0765  1.0000  -4.8839   0.0000   0.0000   0.0000   0.2841
   9.200   1.2607   0.01877   0.01155  -0.0553  0.0701  1.0000  -4.9671   0.0000   0.0000   0.0000   0.2833
   9.300   1.2663   0.01919   0.01190  -0.0546  0.0616  1.0000  -5.0386   0.0000   0.0000   0.0000   0.2824
   9.400   1.2728   0.01954   0.01223  -0.0539  0.0534  1.0000  -5.1088   0.0000   0.0000   0.0000   0.2816
   9.500   1.2766   0.02011   0.01271  -0.0530  0.0424  1.0000  -5.1573   0.0000   0.0000   0.0000   0.2805
   9.600   1.2789   0.02080   0.01330  -0.0517  0.0328  1.0000  -5.1867   0.0000   0.0000   0.0000   0.2794
   9.700   1.2827   0.02135   0.01386  -0.0507  0.0278  1.0000  -5.2148   0.0000   0.0000   0.0000   0.2783
   9.800   1.2867   0.02184   0.01436  -0.0497  0.0251  1.0000  -5.2581   0.0000   0.0000   0.0000   0.2772
   9.900   1.2895   0.02236   0.01488  -0.0485  0.0232  1.0000  -5.2967   0.0000   0.0000   0.0000   0.2761
  10.000   1.2902   0.02298   0.01553  -0.0469  0.0215  1.0000  -5.3173   0.0000   0.0000   0.0000   0.2747
  10.100   1.2892   0.02367   0.01628  -0.0451  0.0205  1.0000  -5.3447   0.0000   0.0000   0.0000   0.2732
  10.200   1.2933   0.02404   0.01670  -0.0441  0.0201  1.0000  -5.4196   0.0000   0.0000   0.0000   0.2722
  10.300   1.2968   0.02445   0.01716  -0.0430  0.0197  1.0000  -5.4903   0.0000   0.0000   0.0000   0.2712
  10.400   1.2999   0.02488   0.01765  -0.0420  0.0193  1.0000  -5.5584   0.0000   0.0000   0.0000   0.2701
  10.500   1.3027   0.02534   0.01816  -0.0408  0.0189  1.0000  -5.6243   0.0000   0.0000   0.0000   0.2690
  10.600   1.3051   0.02583   0.01870  -0.0397  0.0185  1.0000  -5.6883   0.0000   0.0000   0.0000   0.2680
  10.700   1.3073   0.02634   0.01925  -0.0386  0.0182  1.0000  -5.7515   0.0000   0.0000   0.0000   0.2669
  10.800   1.3094   0.02687   0.01983  -0.0375  0.0179  1.0000  -5.8137   0.0000   0.0000   0.0000   0.2659
  10.900   1.3112   0.02741   0.02043  -0.0365  0.0176  1.0000  -5.8751   0.0000   0.0000   0.0000   0.2649
  11.000   1.3130   0.02798   0.02105  -0.0354  0.0174  1.0000  -5.9363   0.0000   0.0000   0.0000   0.2639
  11.100   1.3147   0.02857   0.02169  -0.0344  0.0171  1.0000  -5.9965   0.0000   0.0000   0.0000   0.2629
  11.200   1.3161   0.02919   0.02238  -0.0334  0.0169  1.0000  -6.0532   0.0000   0.0000   0.0000   0.2620
  11.300   1.3174   0.02982   0.02307  -0.0324  0.0167  1.0000  -6.1109   0.0000   0.0000   0.0000   0.2611
  11.400   1.3185   0.03049   0.02378  -0.0315  0.0166  1.0000  -6.1676   0.0000   0.0000   0.0000   0.2602
  11.500   1.3195   0.03118   0.02452  -0.0306  0.0164  1.0000  -6.2234   0.0000   0.0000   0.0000   0.2593
  11.600   1.3203   0.03190   0.02529  -0.0297  0.0163  1.0000  -6.2786   0.0000   0.0000   0.0000   0.2585
  11.700   1.3210   0.03264   0.02609  -0.0288  0.0162  1.0000  -6.3321   0.0000   0.0000   0.0000   0.2576
  11.800   1.3216   0.03341   0.02691  -0.0280  0.0161  1.0000  -6.3850   0.0000   0.0000   0.0000   0.2568
  11.900   1.3221   0.03422   0.02776  -0.0272  0.0159  1.0000  -6.4370   0.0000   0.0000   0.0000   0.2561
  12.000   1.3225   0.03505   0.02865  -0.0265  0.0159  1.0000  -6.4878   0.0000   0.0000   0.0000   0.2554
  12.100   1.3229   0.03590   0.02955  -0.0258  0.0158  1.0000  -6.5382   0.0000   0.0000   0.0000   0.2546
  12.200   1.3232   0.03679   0.03050  -0.0251  0.0157  1.0000  -6.5870   0.0000   0.0000   0.0000   0.2540
  12.300   1.3234   0.03770   0.03146  -0.0245  0.0156  1.0000  -6.6354   0.0000   0.0000   0.0000   0.2533
  12.400   1.3236   0.03864   0.03245  -0.0239  0.0155  1.0000  -6.6839   0.0000   0.0000   0.0000   0.2527
  12.500   1.3236   0.03960   0.03347  -0.0234  0.0154  1.0000  -6.7319   0.0000   0.0000   0.0000   0.2522
  12.600   1.3237   0.04059   0.03451  -0.0229  0.0153  1.0000  -6.7800   0.0000   0.0000   0.0000   0.2516
  12.700   1.3236   0.04162   0.03559  -0.0224  0.0152  1.0000  -6.8268   0.0000   0.0000   0.0000   0.2511
  12.800   1.3234   0.04268   0.03670  -0.0220  0.0151  1.0000  -6.8727   0.0000   0.0000   0.0000   0.2506
  12.900   1.3230   0.04378   0.03786  -0.0217  0.0150  1.0000  -6.9169   0.0000   0.0000   0.0000   0.2502
  13.000   1.3223   0.04493   0.03906  -0.0214  0.0149  1.0000  -6.9586   0.0000   0.0000   0.0000   0.2498
  13.100   1.3215   0.04612   0.04031  -0.0211  0.0148  1.0000  -6.9979   0.0000   0.0000   0.0000   0.2494
  13.200   1.3203   0.04738   0.04163  -0.0209  0.0147  1.0000  -7.0335   0.0000   0.0000   0.0000   0.2491
  13.300   1.3189   0.04869   0.04301  -0.0207  0.0145  1.0000  -7.0663   0.0000   0.0000   0.0000   0.2488
  13.400   1.3173   0.05008   0.04446  -0.0205  0.0144  1.0000  -7.0947   0.0000   0.0000   0.0000   0.2485
  13.500   1.3153   0.05154   0.04599  -0.0204  0.0143  1.0000  -7.1192   0.0000   0.0000   0.0000   0.2483
  13.600   1.3130   0.05308   0.04760  -0.0204  0.0142  1.0000  -7.1392   0.0000   0.0000   0.0000   0.2481
  13.700   1.3104   0.05469   0.04928  -0.0204  0.0141  1.0000  -7.1548   0.0000   0.0000   0.0000   0.2479
  13.800   1.3074   0.05636   0.05104  -0.0204  0.0140  1.0000  -7.1664   0.0000   0.0000   0.0000   0.2478
  13.900   1.3041   0.05811   0.05287  -0.0206  0.0140  1.0000  -7.1738   0.0000   0.0000   0.0000   0.2478
  14.000   1.3006   0.05991   0.05476  -0.0208  0.0139  1.0000  -7.1785   0.0000   0.0000   0.0000   0.2478
  14.100   1.2968   0.06178   0.05671  -0.0210  0.0139  1.0000  -7.1805   0.0000   0.0000   0.0000   0.2479
  14.200   1.2929   0.06369   0.05871  -0.0214  0.0138  1.0000  -7.1814   0.0000   0.0000   0.0000   0.2480
  14.300   1.2889   0.06564   0.06074  -0.0219  0.0138  1.0000  -7.1810   0.0000   0.0000   0.0000   0.2483
  14.400   1.2849   0.06761   0.06280  -0.0224  0.0138  1.0000  -7.1811   0.0000   0.0000   0.0000   0.2485
  14.500   1.2809   0.06961   0.06488  -0.0230  0.0138  1.0000  -7.1810   0.0000   0.0000   0.0000   0.2489
  14.600   1.2768   0.07165   0.06700  -0.0237  0.0138  1.0000  -7.1798   0.0000   0.0000   0.0000   0.2493
  14.700   1.2725   0.07376   0.06919  -0.0244  0.0138  1.0000  -7.1760   0.0000   0.0000   0.0000   0.2497
  14.800   1.2680   0.07592   0.07141  -0.0253  0.0138  1.0000  -7.1706   0.0000   0.0000   0.0000   0.2503
  14.900   1.2634   0.07814   0.07372  -0.0262  0.0138  1.0000  -7.1628   0.0000   0.0000   0.0000   0.2509
  15.000   1.2587   0.08042   0.07607  -0.0272  0.0138  1.0000  -7.1535   0.0000   0.0000   0.0000   0.2516


