xflr5 v6.61

 Calculated polar for: SD7037-092-88

 1 1 Reynolds number fixed          Mach number fixed         

 xtrf =   1.000 (top)        1.000 (bottom)
 Mach =   0.000     Re =     0.250 e 6     Ncrit =   9.000

  alpha     CL        CD       CDp       Cm    Top Xtr Bot Xtr   Cpmin    Chinge    XCp    
 ------- -------- --------- --------- -------- ------- ------- -------- --------- ---------
 -10.000  -0.3670   0.10882   0.10547  -0.0305  1.0000  0.0318  -1.6179   0.0000   0.0000   0.0000   0.1596
  -9.900  -0.3667   0.10773   0.10440  -0.0314  1.0000  0.0322  -1.6505   0.0000   0.0000   0.0000   0.1571
  -9.800  -0.3660   0.10674   0.10342  -0.0324  1.0000  0.0326  -1.6817   0.0000   0.0000   0.0000   0.1544
  -9.700  -0.3654   0.10576   0.10246  -0.0332  1.0000  0.0329  -1.7084   0.0000   0.0000   0.0000   0.1519
  -9.600  -0.3640   0.10477   0.10149  -0.0338  1.0000  0.0331  -1.7244   0.0000   0.0000   0.0000   0.1500
  -9.500  -0.3630   0.10372   0.10044  -0.0344  1.0000  0.0333  -1.7401   0.0000   0.0000   0.0000   0.1482
  -9.400  -0.3621   0.10260   0.09934  -0.0349  1.0000  0.0334  -1.7559   0.0000   0.0000   0.0000   0.1467
  -9.300  -0.3615   0.10144   0.09820  -0.0354  1.0000  0.0334  -1.7721   0.0000   0.0000   0.0000   0.1452
  -9.200  -0.3609   0.10025   0.09703  -0.0359  1.0000  0.0335  -1.7887   0.0000   0.0000   0.0000   0.1439
  -9.100  -0.3606   0.09905   0.09584  -0.0363  1.0000  0.0335  -1.8058   0.0000   0.0000   0.0000   0.1427
  -9.000  -0.3604   0.09783   0.09464  -0.0367  1.0000  0.0336  -1.8234   0.0000   0.0000   0.0000   0.1416
  -8.900  -0.3605   0.09661   0.09343  -0.0371  1.0000  0.0336  -1.8416   0.0000   0.0000   0.0000   0.1406
  -8.800  -0.3607   0.09538   0.09222  -0.0375  1.0000  0.0336  -1.8603   0.0000   0.0000   0.0000   0.1398
  -8.700  -0.3612   0.09415   0.09101  -0.0378  1.0000  0.0337  -1.8795   0.0000   0.0000   0.0000   0.1391
  -8.600  -0.3620   0.09293   0.08981  -0.0381  1.0000  0.0337  -1.8994   0.0000   0.0000   0.0000   0.1387
  -8.500  -0.3633   0.09174   0.08864  -0.0383  1.0000  0.0337  -1.9198   0.0000   0.0000   0.0000   0.1386
  -8.400  -0.3650   0.09057   0.08750  -0.0384  1.0000  0.0337  -1.9407   0.0000   0.0000   0.0000   0.1389
  -8.300  -0.3673   0.08945   0.08640  -0.0384  1.0000  0.0337  -1.9622   0.0000   0.0000   0.0000   0.1396
  -8.200  -0.3702   0.08838   0.08536  -0.0383  1.0000  0.0337  -1.9841   0.0000   0.0000   0.0000   0.1409
  -8.100  -0.3842   0.08512   0.08217  -0.0383  1.0000  0.0341  -2.0992   0.0000   0.0000   0.0000   0.1448
  -8.000  -0.3942   0.08313   0.08021  -0.0377  1.0000  0.0345  -2.1550   0.0000   0.0000   0.0000   0.1492
  -7.900  -0.4019   0.08195   0.07907  -0.0368  1.0000  0.0346  -2.1837   0.0000   0.0000   0.0000   0.1533
  -7.800  -0.4096   0.08101   0.07815  -0.0359  1.0000  0.0347  -2.2076   0.0000   0.0000   0.0000   0.1575
  -7.700  -0.4166   0.07999   0.07716  -0.0352  1.0000  0.0349  -2.2299   0.0000   0.0000   0.0000   0.1609
  -7.600  -0.4219   0.07873   0.07593  -0.0349  1.0000  0.0350  -2.2488   0.0000   0.0000   0.0000   0.1627
  -7.500  -0.4262   0.07754   0.07475  -0.0346  1.0000  0.0352  -2.2598   0.0000   0.0000   0.0000   0.1644
  -7.400  -0.4285   0.07661   0.07384  -0.0338  1.0000  0.0354  -2.2479   0.0000   0.0000   0.0000   0.1668
  -7.300  -0.4309   0.07568   0.07293  -0.0332  1.0000  0.0357  -2.2391   0.0000   0.0000   0.0000   0.1689
  -7.200  -0.4333   0.07474   0.07200  -0.0326  1.0000  0.0359  -2.2323   0.0000   0.0000   0.0000   0.1706
  -7.100  -0.4356   0.07379   0.07106  -0.0322  1.0000  0.0361  -2.2271   0.0000   0.0000   0.0000   0.1721
  -7.000  -0.4377   0.07281   0.07009  -0.0319  1.0000  0.0363  -2.2229   0.0000   0.0000   0.0000   0.1734
  -6.900  -0.4396   0.07181   0.06910  -0.0316  1.0000  0.0365  -2.2196   0.0000   0.0000   0.0000   0.1744
  -6.800  -0.4413   0.07077   0.06807  -0.0314  1.0000  0.0368  -2.2171   0.0000   0.0000   0.0000   0.1752
  -6.700  -0.4426   0.06976   0.06706  -0.0312  1.0000  0.0370  -2.2123   0.0000   0.0000   0.0000   0.1760
  -6.600  -0.4436   0.06873   0.06604  -0.0310  1.0000  0.0373  -2.2077   0.0000   0.0000   0.0000   0.1767
  -6.500  -0.4444   0.06766   0.06497  -0.0309  1.0000  0.0376  -2.2047   0.0000   0.0000   0.0000   0.1771
  -6.400  -0.4450   0.06654   0.06385  -0.0309  1.0000  0.0380  -2.2032   0.0000   0.0000   0.0000   0.1772
  -6.300  -0.4385   0.06495   0.06224  -0.0325  0.9991  0.0386  -2.1900   0.0000   0.0000   0.0000   0.1726
  -6.200  -0.4272   0.06293   0.06016  -0.0355  0.9973  0.0396  -2.1765   0.0000   0.0000   0.0000   0.1637
  -6.100  -0.4152   0.06071   0.05790  -0.0388  0.9953  0.0406  -2.1741   0.0000   0.0000   0.0000   0.1534
  -6.000  -0.4024   0.05830   0.05543  -0.0423  0.9934  0.0419  -2.1817   0.0000   0.0000   0.0000   0.1415
  -5.900  -0.3884   0.05571   0.05275  -0.0462  0.9916  0.0436  -2.2017   0.0000   0.0000   0.0000   0.1277
  -5.800  -0.3746   0.05313   0.05006  -0.0497  0.9897  0.0456  -2.2396   0.0000   0.0000   0.0000   0.1137
  -5.700  -0.3519   0.05298   0.04963  -0.0528  0.9868  0.0492  -2.2737   0.0000   0.0000   0.0000   0.0961
  -5.600  -0.3390   0.05167   0.04816  -0.0548  0.9843  0.0495  -2.2775   0.0000   0.0000   0.0000   0.0844
  -5.500  -0.3266   0.05002   0.04638  -0.0567  0.9819  0.0496  -2.2778   0.0000   0.0000   0.0000   0.0725
  -5.400  -0.3268   0.04205   0.03817  -0.0609  0.9793  0.0516  -2.4474   0.0000   0.0000   0.0000   0.0594
  -5.300  -0.3161   0.04021   0.03635  -0.0623  0.9779  0.0530  -2.3892   0.0000   0.0000   0.0000   0.0487
  -5.200  -0.3037   0.03959   0.03581  -0.0632  0.9767  0.0545  -2.2819   0.0000   0.0000   0.0000   0.0378
  -5.100  -0.2902   0.03905   0.03529  -0.0643  0.9755  0.0566  -2.1831   0.0000   0.0000   0.0000   0.0243
  -5.000  -0.2756   0.03817   0.03436  -0.0658  0.9743  0.0592  -2.1118   0.0000   0.0000   0.0000   0.0071
  -4.900  -0.2597   0.03696   0.03304  -0.0675  0.9732  0.0621  -2.0668   0.0000   0.0000   0.0000  -0.0145
  -4.800  -0.2459   0.03593   0.03184  -0.0685  0.9713  0.0649  -2.0407   0.0000   0.0000   0.0000  -0.0334
  -4.700  -0.2294   0.03848   0.03419  -0.0677  0.9676  0.0691  -1.9576   0.0000   0.0000   0.0000  -0.0499
  -4.600  -0.2256   0.03328   0.02867  -0.0697  0.9644  0.0716  -2.0384   0.0000   0.0000   0.0000  -0.0637
  -4.500  -0.2150   0.03136   0.02671  -0.0706  0.9624  0.0732  -1.9943   0.0000   0.0000   0.0000  -0.0837
  -4.400  -0.2020   0.03025   0.02561  -0.0715  0.9606  0.0744  -1.9299   0.0000   0.0000   0.0000  -0.1092
  -4.200  -0.1685   0.02265   0.01682  -0.0711  0.9580  0.0321  -2.3582   0.0000   0.0000   0.0000  -0.1790
  -4.100  -0.1542   0.02115   0.01512  -0.0718  0.9567  0.0309  -2.3377   0.0000   0.0000   0.0000  -0.2235
  -4.000  -0.1392   0.01999   0.01377  -0.0726  0.9556  0.0300  -2.3034   0.0000   0.0000   0.0000  -0.2797
  -3.900  -0.1236   0.01898   0.01261  -0.0733  0.9545  0.0292  -2.2613   0.0000   0.0000   0.0000  -0.3525
  -3.800  -0.1076   0.01810   0.01159  -0.0741  0.9535  0.0285  -2.2465   0.0000   0.0000   0.0000  -0.4493
  -3.700  -0.0913   0.01734   0.01068  -0.0750  0.9526  0.0281  -2.2281   0.0000   0.0000   0.0000  -0.5836
  -3.600  -0.0747   0.01668   0.00993  -0.0759  0.9518  0.0279  -2.2006   0.0000   0.0000   0.0000  -0.7804
  -3.500  -0.0580   0.01612   0.00929  -0.0769  0.9510  0.0278  -2.1661   0.0000   0.0000   0.0000  -1.0942
  -3.400  -0.0410   0.01561   0.00873  -0.0780  0.9503  0.0280  -2.1267   0.0000   0.0000   0.0000  -1.6775
  -3.300  -0.0374   0.01532   0.00842  -0.0764  0.9448  0.0281  -2.1062   0.0000   0.0000   0.0000  -1.8169
  -3.200  -0.0255   0.01494   0.00801  -0.0764  0.9419  0.0284  -2.0708   0.0000   0.0000   0.0000  -2.7849
  -3.100  -0.0117   0.01457   0.00761  -0.0768  0.9396  0.0290  -2.0311   0.0000   0.0000   0.0000  -6.4212
  -3.000   0.0032   0.01422   0.00723  -0.0775  0.9377  0.0298  -1.9894   0.0000   0.0000   0.0000  24.5871
  -2.900   0.0188   0.01389   0.00688  -0.0783  0.9360  0.0310  -1.9473   0.0000   0.0000   0.0000   4.4468
  -2.800   0.0351   0.01360   0.00655  -0.0792  0.9345  0.0325  -1.9041   0.0000   0.0000   0.0000   2.5303
  -2.700   0.0511   0.01325   0.00616  -0.0800  0.9330  0.0347  -1.8713   0.0000   0.0000   0.0000   1.8314
  -2.600   0.0669   0.01279   0.00568  -0.0808  0.9315  0.0416  -1.8540   0.0000   0.0000   0.0000   1.4688
  -2.500   0.0825   0.01225   0.00527  -0.0816  0.9302  0.0751  -1.8534   0.0000   0.0000   0.0000   1.2483
  -2.400   0.0969   0.01160   0.00509  -0.0826  0.9288  0.1767  -1.8043   0.0000   0.0000   0.0000   1.1089
  -2.300   0.1122   0.01126   0.00497  -0.0835  0.9274  0.2389  -1.7235   0.0000   0.0000   0.0000   0.9997
  -2.200   0.1226   0.01101   0.00490  -0.0835  0.9242  0.2894  -1.6537   0.0000   0.0000   0.0000   0.9353
  -2.100   0.1301   0.01078   0.00485  -0.0828  0.9192  0.3399  -1.5917   0.0000   0.0000   0.0000   0.8902
  -2.000   0.1409   0.01049   0.00479  -0.0827  0.9157  0.4024  -1.5176   0.0000   0.0000   0.0000   0.8406
  -1.900   0.1528   0.01022   0.00471  -0.0828  0.9128  0.4611  -1.4395   0.0000   0.0000   0.0000   0.7951
  -1.800   0.1647   0.00992   0.00465  -0.0829  0.9102  0.5288  -1.3610   0.0000   0.0000   0.0000   0.7558
  -1.700   0.1759   0.00958   0.00461  -0.0827  0.9078  0.6116  -1.2846   0.0000   0.0000   0.0000   0.7223
  -1.600   0.1866   0.00928   0.00459  -0.0822  0.9056  0.6888  -1.2099   0.0000   0.0000   0.0000   0.6925
  -1.500   0.1972   0.00906   0.00456  -0.0816  0.9035  0.7493  -1.1361   0.0000   0.0000   0.0000   0.6655
  -1.400   0.2047   0.00894   0.00455  -0.0805  0.8996  0.7902  -1.0734   0.0000   0.0000   0.0000   0.6444
  -1.300   0.2111   0.00884   0.00453  -0.0791  0.8944  0.8237  -1.0146   0.0000   0.0000   0.0000   0.6258
  -1.200   0.2196   0.00872   0.00446  -0.0780  0.8903  0.8576  -0.9450   0.0000   0.0000   0.0000   0.6063
  -1.100   0.2306   0.00860   0.00438  -0.0774  0.8871  0.8940  -0.8735   0.0000   0.0000   0.0000   0.5866
  -1.000   0.2474   0.00849   0.00427  -0.0781  0.8847  0.9296  -0.7849   0.0000   0.0000   0.0000   0.5662
  -0.900   0.2693   0.00837   0.00413  -0.0800  0.8828  0.9562  -0.6828   0.0000   0.0000   0.0000   0.5473
  -0.800   0.2914   0.00827   0.00397  -0.0820  0.8808  0.9751  -0.5833   0.0000   0.0000   0.0000   0.5315
  -0.700   0.3141   0.00816   0.00382  -0.0842  0.8788  0.9900  -0.5365   0.0000   0.0000   0.0000   0.5180
  -0.600   0.3320   0.00811   0.00373  -0.0856  0.8745  1.0000  -0.5504   0.0000   0.0000   0.0000   0.5076
  -0.500   0.3396   0.00809   0.00367  -0.0849  0.8683  1.0000  -0.5592   0.0000   0.0000   0.0000   0.4995
  -0.400   0.3488   0.00804   0.00358  -0.0843  0.8630  1.0000  -0.5692   0.0000   0.0000   0.0000   0.4913
  -0.300   0.3589   0.00799   0.00347  -0.0839  0.8585  1.0000  -0.5797   0.0000   0.0000   0.0000   0.4833
  -0.200   0.3698   0.00794   0.00336  -0.0837  0.8547  1.0000  -0.5908   0.0000   0.0000   0.0000   0.4756
  -0.100   0.3780   0.00794   0.00334  -0.0831  0.8480  1.0000  -0.6001   0.0000   0.0000   0.0000   0.4689
   0.000   0.3873   0.00792   0.00328  -0.0826  0.8417  1.0000  -0.6106   0.0000   0.0000   0.0000   0.4623
   0.100   0.3975   0.00789   0.00320  -0.0822  0.8363  1.0000  -0.6223   0.0000   0.0000   0.0000   0.4558
   0.200   0.4083   0.00785   0.00310  -0.0819  0.8316  1.0000  -0.6345   0.0000   0.0000   0.0000   0.4496
   0.300   0.4178   0.00786   0.00307  -0.0815  0.8250  1.0000  -0.6457   0.0000   0.0000   0.0000   0.4439
   0.400   0.4274   0.00785   0.00304  -0.0811  0.8181  1.0000  -0.6571   0.0000   0.0000   0.0000   0.4385
   0.500   0.4379   0.00783   0.00297  -0.0808  0.8121  1.0000  -0.6691   0.0000   0.0000   0.0000   0.4332
   0.600   0.4488   0.00782   0.00289  -0.0806  0.8068  1.0000  -0.6823   0.0000   0.0000   0.0000   0.4281
   0.700   0.4583   0.00783   0.00289  -0.0802  0.7989  1.0000  -0.6949   0.0000   0.0000   0.0000   0.4234
   0.800   0.4685   0.00784   0.00285  -0.0799  0.7916  1.0000  -0.7080   0.0000   0.0000   0.0000   0.4188
   0.900   0.4792   0.00784   0.00279  -0.0796  0.7853  1.0000  -0.7216   0.0000   0.0000   0.0000   0.4144
   1.000   0.4894   0.00786   0.00277  -0.0793  0.7781  1.0000  -0.7349   0.0000   0.0000   0.0000   0.4103
   1.100   0.4995   0.00788   0.00276  -0.0790  0.7700  1.0000  -0.7481   0.0000   0.0000   0.0000   0.4063
   1.200   0.5100   0.00790   0.00272  -0.0787  0.7627  1.0000  -0.7619   0.0000   0.0000   0.0000   0.4024
   1.300   0.5204   0.00793   0.00270  -0.0785  0.7552  1.0000  -0.7769   0.0000   0.0000   0.0000   0.3987
   1.400   0.5305   0.00796   0.00271  -0.0782  0.7469  1.0000  -0.7918   0.0000   0.0000   0.0000   0.3952
   1.500   0.5410   0.00800   0.00268  -0.0779  0.7391  1.0000  -0.8071   0.0000   0.0000   0.0000   0.3918
   1.600   0.5514   0.00804   0.00268  -0.0777  0.7315  1.0000  -0.8223   0.0000   0.0000   0.0000   0.3886
   1.700   0.5615   0.00809   0.00269  -0.0774  0.7227  1.0000  -0.8373   0.0000   0.0000   0.0000   0.3855
   1.800   0.5719   0.00814   0.00268  -0.0772  0.7146  1.0000  -0.8527   0.0000   0.0000   0.0000   0.3824
   1.900   0.5822   0.00820   0.00269  -0.0769  0.7067  1.0000  -0.8680   0.0000   0.0000   0.0000   0.3795
   2.000   0.5924   0.00825   0.00271  -0.0767  0.6978  1.0000  -0.8841   0.0000   0.0000   0.0000   0.3767
   2.100   0.6027   0.00832   0.00271  -0.0764  0.6896  1.0000  -0.9016   0.0000   0.0000   0.0000   0.3740
   2.200   0.6130   0.00837   0.00274  -0.0762  0.6812  1.0000  -0.9189   0.0000   0.0000   0.0000   0.3714
   2.300   0.6232   0.00844   0.00276  -0.0759  0.6723  1.0000  -0.9363   0.0000   0.0000   0.0000   0.3689
   2.400   0.6335   0.00852   0.00277  -0.0756  0.6641  1.0000  -0.9539   0.0000   0.0000   0.0000   0.3664
   2.500   0.6437   0.00858   0.00281  -0.0754  0.6554  1.0000  -0.9715   0.0000   0.0000   0.0000   0.3641
   2.600   0.6539   0.00865   0.00287  -0.0752  0.6463  1.0000  -0.9890   0.0000   0.0000   0.0000   0.3618
   2.700   0.6640   0.00875   0.00289  -0.0749  0.6381  1.0000  -1.0067   0.0000   0.0000   0.0000   0.3596
   2.800   0.6743   0.00880   0.00294  -0.0747  0.6290  1.0000  -1.0262   0.0000   0.0000   0.0000   0.3575
   2.900   0.6844   0.00889   0.00298  -0.0744  0.6201  1.0000  -1.0465   0.0000   0.0000   0.0000   0.3554
   3.000   0.6945   0.00898   0.00302  -0.0742  0.6119  1.0000  -1.0669   0.0000   0.0000   0.0000   0.3533
   3.100   0.7047   0.00905   0.00307  -0.0740  0.6027  1.0000  -1.0874   0.0000   0.0000   0.0000   0.3514
   3.200   0.7147   0.00915   0.00311  -0.0737  0.5938  1.0000  -1.1079   0.0000   0.0000   0.0000   0.3495
   3.300   0.7248   0.00923   0.00316  -0.0735  0.5850  1.0000  -1.1285   0.0000   0.0000   0.0000   0.3476
   3.400   0.7349   0.00931   0.00322  -0.0733  0.5755  1.0000  -1.1491   0.0000   0.0000   0.0000   0.3458
   3.500   0.7448   0.00943   0.00326  -0.0730  0.5669  1.0000  -1.1697   0.0000   0.0000   0.0000   0.3440
   3.600   0.7550   0.00950   0.00333  -0.0728  0.5580  1.0000  -1.1921   0.0000   0.0000   0.0000   0.3423
   3.700   0.7650   0.00960   0.00339  -0.0725  0.5490  1.0000  -1.2162   0.0000   0.0000   0.0000   0.3407
   3.800   0.7749   0.00972   0.00345  -0.0723  0.5405  1.0000  -1.2402   0.0000   0.0000   0.0000   0.3390
   3.900   0.7850   0.00980   0.00352  -0.0721  0.5309  1.0000  -1.2647   0.0000   0.0000   0.0000   0.3375
   4.000   0.7948   0.00991   0.00359  -0.0718  0.5215  1.0000  -1.2888   0.0000   0.0000   0.0000   0.3359
   4.100   0.8047   0.01002   0.00370  -0.0715  0.5124  1.0000  -1.3133   0.0000   0.0000   0.0000   0.3344
   4.200   0.8146   0.01012   0.00377  -0.0713  0.5027  1.0000  -1.3379   0.0000   0.0000   0.0000   0.3329
   4.300   0.8242   0.01026   0.00385  -0.0710  0.4939  1.0000  -1.3621   0.0000   0.0000   0.0000   0.3314
   4.400   0.8344   0.01034   0.00393  -0.0708  0.4849  1.0000  -1.3872   0.0000   0.0000   0.0000   0.3300
   4.500   0.8441   0.01046   0.00402  -0.0705  0.4756  1.0000  -1.4175   0.0000   0.0000   0.0000   0.3287
   4.600   0.8537   0.01059   0.00411  -0.0702  0.4667  1.0000  -1.4516   0.0000   0.0000   0.0000   0.3273
   4.700   0.8637   0.01069   0.00420  -0.0700  0.4568  1.0000  -1.4863   0.0000   0.0000   0.0000   0.3260
   4.800   0.8730   0.01084   0.00429  -0.0697  0.4473  1.0000  -1.5203   0.0000   0.0000   0.0000   0.3246
   4.900   0.8829   0.01095   0.00438  -0.0695  0.4377  1.0000  -1.5554   0.0000   0.0000   0.0000   0.3234
   5.000   0.8925   0.01108   0.00448  -0.0692  0.4279  1.0000  -1.5902   0.0000   0.0000   0.0000   0.3221
   5.100   0.9019   0.01123   0.00459  -0.0689  0.4191  1.0000  -1.6249   0.0000   0.0000   0.0000   0.3209
   5.200   0.9118   0.01134   0.00469  -0.0687  0.4099  1.0000  -1.6606   0.0000   0.0000   0.0000   0.3197
   5.300   0.9211   0.01150   0.00480  -0.0683  0.4006  1.0000  -1.6954   0.0000   0.0000   0.0000   0.3185
   5.400   0.9307   0.01163   0.00492  -0.0681  0.3914  1.0000  -1.7322   0.0000   0.0000   0.0000   0.3173
   5.500   0.9402   0.01177   0.00507  -0.0678  0.3814  1.0000  -1.7728   0.0000   0.0000   0.0000   0.3162
   5.600   0.9492   0.01195   0.00520  -0.0675  0.3721  1.0000  -1.8264   0.0000   0.0000   0.0000   0.3150
   5.700   0.9590   0.01206   0.00532  -0.0672  0.3623  1.0000  -1.9038   0.0000   0.0000   0.0000   0.3140
   5.800   0.9679   0.01225   0.00545  -0.0669  0.3528  1.0000  -1.9797   0.0000   0.0000   0.0000   0.3129
   5.900   0.9775   0.01239   0.00558  -0.0666  0.3441  1.0000  -2.0586   0.0000   0.0000   0.0000   0.3118
   6.000   0.9869   0.01254   0.00572  -0.0663  0.3350  1.0000  -2.1384   0.0000   0.0000   0.0000   0.3108
   6.100   0.9956   0.01275   0.00587  -0.0660  0.3264  1.0000  -2.2162   0.0000   0.0000   0.0000   0.3097
   6.200   1.0053   0.01288   0.00601  -0.0657  0.3176  1.0000  -2.2991   0.0000   0.0000   0.0000   0.3087
   6.300   1.0143   0.01306   0.00616  -0.0654  0.3082  1.0000  -2.3799   0.0000   0.0000   0.0000   0.3077
   6.400   1.0231   0.01326   0.00632  -0.0651  0.2992  1.0000  -2.4609   0.0000   0.0000   0.0000   0.3067
   6.500   1.0325   0.01340   0.00646  -0.0648  0.2894  1.0000  -2.5451   0.0000   0.0000   0.0000   0.3057
   6.600   1.0407   0.01364   0.00663  -0.0644  0.2799  1.0000  -2.6256   0.0000   0.0000   0.0000   0.3047
   6.700   1.0502   0.01378   0.00679  -0.0641  0.2710  1.0000  -2.7118   0.0000   0.0000   0.0000   0.3038
   6.800   1.0590   0.01398   0.00695  -0.0638  0.2619  1.0000  -2.7962   0.0000   0.0000   0.0000   0.3028
   6.900   1.0673   0.01422   0.00714  -0.0633  0.2535  1.0000  -2.8790   0.0000   0.0000   0.0000   0.3018
   7.000   1.0767   0.01436   0.00734  -0.0631  0.2448  1.0000  -2.9703   0.0000   0.0000   0.0000   0.3010
   7.100   1.0850   0.01459   0.00752  -0.0627  0.2359  1.0000  -3.0556   0.0000   0.0000   0.0000   0.3000
   7.200   1.0937   0.01479   0.00771  -0.0623  0.2276  1.0000  -3.1429   0.0000   0.0000   0.0000   0.2991
   7.300   1.1026   0.01497   0.00788  -0.0620  0.2187  1.0000  -3.2319   0.0000   0.0000   0.0000   0.2982
   7.400   1.1102   0.01525   0.00809  -0.0615  0.2098  1.0000  -3.3155   0.0000   0.0000   0.0000   0.2973
   7.500   1.1195   0.01540   0.00826  -0.0613  0.2017  1.0000  -3.4072   0.0000   0.0000   0.0000   0.2965
   7.600   1.1279   0.01562   0.00845  -0.0609  0.1930  1.0000  -3.4958   0.0000   0.0000   0.0000   0.2956
   7.700   1.1354   0.01591   0.00868  -0.0604  0.1850  1.0000  -3.5803   0.0000   0.0000   0.0000   0.2947
   7.800   1.1447   0.01606   0.00887  -0.0601  0.1784  1.0000  -3.6740   0.0000   0.0000   0.0000   0.2939
   7.900   1.1530   0.01628   0.00907  -0.0597  0.1710  1.0000  -3.7636   0.0000   0.0000   0.0000   0.2931
   8.000   1.1602   0.01660   0.00933  -0.0592  0.1638  1.0000  -3.8478   0.0000   0.0000   0.0000   0.2921
   8.100   1.1693   0.01676   0.00954  -0.0589  0.1580  1.0000  -3.9419   0.0000   0.0000   0.0000   0.2914
   8.200   1.1777   0.01697   0.00975  -0.0585  0.1512  1.0000  -4.0333   0.0000   0.0000   0.0000   0.2906
   8.300   1.1849   0.01727   0.01000  -0.0580  0.1439  1.0000  -4.1193   0.0000   0.0000   0.0000   0.2897
   8.400   1.1932   0.01749   0.01023  -0.0576  0.1374  1.0000  -4.2104   0.0000   0.0000   0.0000   0.2889
   8.500   1.2015   0.01770   0.01044  -0.0573  0.1303  1.0000  -4.3028   0.0000   0.0000   0.0000   0.2881
   8.600   1.2086   0.01801   0.01070  -0.0567  0.1232  1.0000  -4.3890   0.0000   0.0000   0.0000   0.2873
   8.700   1.2162   0.01827   0.01100  -0.0563  0.1171  1.0000  -4.4764   0.0000   0.0000   0.0000   0.2864
   8.800   1.2245   0.01848   0.01122  -0.0559  0.1106  1.0000  -4.5687   0.0000   0.0000   0.0000   0.2857
   8.900   1.2312   0.01880   0.01149  -0.0553  0.1032  1.0000  -4.6539   0.0000   0.0000   0.0000   0.2848
   9.000   1.2383   0.01910   0.01177  -0.0548  0.0966  1.0000  -4.7391   0.0000   0.0000   0.0000   0.2840
   9.100   1.2462   0.01933   0.01202  -0.0544  0.0904  1.0000  -4.8287   0.0000   0.0000   0.0000   0.2833
   9.200   1.2526   0.01967   0.01231  -0.0538  0.0835  1.0000  -4.9100   0.0000   0.0000   0.0000   0.2824
   9.300   1.2590   0.02001   0.01264  -0.0532  0.0772  1.0000  -4.9879   0.0000   0.0000   0.0000   0.2816
   9.400   1.2661   0.02030   0.01294  -0.0526  0.0704  1.0000  -5.0679   0.0000   0.0000   0.0000   0.2808
   9.500   1.2707   0.02079   0.01334  -0.0518  0.0614  1.0000  -5.1315   0.0000   0.0000   0.0000   0.2798
   9.600   1.2762   0.02120   0.01373  -0.0510  0.0521  1.0000  -5.1909   0.0000   0.0000   0.0000   0.2789
   9.700   1.2783   0.02189   0.01434  -0.0498  0.0417  1.0000  -5.2196   0.0000   0.0000   0.0000   0.2778
   9.800   1.2798   0.02259   0.01496  -0.0485  0.0344  1.0000  -5.2407   0.0000   0.0000   0.0000   0.2766
   9.900   1.2787   0.02338   0.01575  -0.0467  0.0300  1.0000  -5.2364   0.0000   0.0000   0.0000   0.2750
  10.000   1.2823   0.02380   0.01623  -0.0456  0.0282  1.0000  -5.2756   0.0000   0.0000   0.0000   0.2739
  10.100   1.2854   0.02426   0.01673  -0.0444  0.0267  1.0000  -5.3154   0.0000   0.0000   0.0000   0.2728
  10.200   1.2880   0.02473   0.01724  -0.0432  0.0255  1.0000  -5.3724   0.0000   0.0000   0.0000   0.2717
  10.300   1.2902   0.02523   0.01777  -0.0420  0.0244  1.0000  -5.4333   0.0000   0.0000   0.0000   0.2706
  10.400   1.2919   0.02579   0.01835  -0.0408  0.0235  1.0000  -5.4902   0.0000   0.0000   0.0000   0.2694
  10.500   1.2925   0.02641   0.01900  -0.0395  0.0227  1.0000  -5.5388   0.0000   0.0000   0.0000   0.2682
  10.600   1.2920   0.02711   0.01975  -0.0381  0.0220  1.0000  -5.5775   0.0000   0.0000   0.0000   0.2670
  10.700   1.2905   0.02791   0.02060  -0.0366  0.0215  1.0000  -5.6072   0.0000   0.0000   0.0000   0.2658
  10.800   1.2883   0.02879   0.02154  -0.0351  0.0210  1.0000  -5.6300   0.0000   0.0000   0.0000   0.2645
  10.900   1.2856   0.02976   0.02259  -0.0336  0.0206  1.0000  -5.6462   0.0000   0.0000   0.0000   0.2633
  11.000   1.2873   0.03039   0.02326  -0.0327  0.0204  1.0000  -5.7017   0.0000   0.0000   0.0000   0.2623
  11.100   1.2895   0.03101   0.02393  -0.0318  0.0202  1.0000  -5.7616   0.0000   0.0000   0.0000   0.2615
  11.200   1.2914   0.03165   0.02463  -0.0309  0.0200  1.0000  -5.8188   0.0000   0.0000   0.0000   0.2606
  11.300   1.2930   0.03234   0.02537  -0.0300  0.0198  1.0000  -5.8742   0.0000   0.0000   0.0000   0.2597
  11.400   1.2946   0.03305   0.02615  -0.0292  0.0196  1.0000  -5.9284   0.0000   0.0000   0.0000   0.2589
  11.500   1.2960   0.03380   0.02699  -0.0284  0.0195  1.0000  -5.9785   0.0000   0.0000   0.0000   0.2581
  11.600   1.2973   0.03458   0.02782  -0.0276  0.0193  1.0000  -6.0293   0.0000   0.0000   0.0000   0.2573
  11.700   1.2986   0.03538   0.02868  -0.0269  0.0191  1.0000  -6.0799   0.0000   0.0000   0.0000   0.2565
  11.800   1.2998   0.03621   0.02958  -0.0261  0.0190  1.0000  -6.1294   0.0000   0.0000   0.0000   0.2558
  11.900   1.3009   0.03707   0.03050  -0.0254  0.0189  1.0000  -6.1779   0.0000   0.0000   0.0000   0.2551
  12.000   1.3021   0.03795   0.03144  -0.0248  0.0187  1.0000  -6.2259   0.0000   0.0000   0.0000   0.2544
  12.100   1.3031   0.03886   0.03242  -0.0242  0.0186  1.0000  -6.2726   0.0000   0.0000   0.0000   0.2538
  12.200   1.3040   0.03980   0.03343  -0.0236  0.0185  1.0000  -6.3183   0.0000   0.0000   0.0000   0.2531
  12.300   1.3049   0.04077   0.03446  -0.0230  0.0184  1.0000  -6.3634   0.0000   0.0000   0.0000   0.2525
  12.400   1.3057   0.04178   0.03554  -0.0225  0.0184  1.0000  -6.4067   0.0000   0.0000   0.0000   0.2519
  12.500   1.3063   0.04282   0.03665  -0.0220  0.0183  1.0000  -6.4482   0.0000   0.0000   0.0000   0.2514
  12.600   1.3068   0.04389   0.03780  -0.0215  0.0182  1.0000  -6.4883   0.0000   0.0000   0.0000   0.2508
  12.700   1.3071   0.04501   0.03899  -0.0211  0.0182  1.0000  -6.5262   0.0000   0.0000   0.0000   0.2503
  12.800   1.3071   0.04616   0.04022  -0.0207  0.0181  1.0000  -6.5618   0.0000   0.0000   0.0000   0.2499
  12.900   1.3069   0.04735   0.04149  -0.0203  0.0181  1.0000  -6.5962   0.0000   0.0000   0.0000   0.2494
  13.000   1.3065   0.04856   0.04278  -0.0200  0.0180  1.0000  -6.6294   0.0000   0.0000   0.0000   0.2490
  13.100   1.3059   0.04981   0.04411  -0.0198  0.0179  1.0000  -6.6619   0.0000   0.0000   0.0000   0.2487
  13.200   1.3051   0.05109   0.04547  -0.0196  0.0179  1.0000  -6.6929   0.0000   0.0000   0.0000   0.2483
  13.300   1.3040   0.05241   0.04687  -0.0194  0.0178  1.0000  -6.7227   0.0000   0.0000   0.0000   0.2481
  13.400   1.3027   0.05377   0.04830  -0.0193  0.0177  1.0000  -6.7514   0.0000   0.0000   0.0000   0.2478
  13.500   1.3012   0.05516   0.04977  -0.0193  0.0176  1.0000  -6.7782   0.0000   0.0000   0.0000   0.2477
  13.600   1.2994   0.05660   0.05128  -0.0193  0.0175  1.0000  -6.8040   0.0000   0.0000   0.0000   0.2475
  13.700   1.2973   0.05808   0.05284  -0.0194  0.0174  1.0000  -6.8273   0.0000   0.0000   0.0000   0.2474
  13.800   1.2951   0.05960   0.05444  -0.0196  0.0173  1.0000  -6.8496   0.0000   0.0000   0.0000   0.2474
  13.900   1.2926   0.06118   0.05609  -0.0198  0.0173  1.0000  -6.8694   0.0000   0.0000   0.0000   0.2474
  14.000   1.2899   0.06281   0.05779  -0.0201  0.0172  1.0000  -6.8881   0.0000   0.0000   0.0000   0.2475
  14.100   1.2869   0.06450   0.05956  -0.0205  0.0171  1.0000  -6.9039   0.0000   0.0000   0.0000   0.2477
  14.200   1.2838   0.06625   0.06138  -0.0210  0.0170  1.0000  -6.9177   0.0000   0.0000   0.0000   0.2479
  14.300   1.2803   0.06809   0.06330  -0.0215  0.0169  1.0000  -6.9270   0.0000   0.0000   0.0000   0.2482
  14.400   1.2765   0.07000   0.06528  -0.0222  0.0169  1.0000  -6.9337   0.0000   0.0000   0.0000   0.2485
  14.500   1.2724   0.07198   0.06735  -0.0229  0.0168  1.0000  -6.9368   0.0000   0.0000   0.0000   0.2489
  14.600   1.2680   0.07406   0.06950  -0.0237  0.0167  1.0000  -6.9361   0.0000   0.0000   0.0000   0.2495
  14.700   1.2634   0.07621   0.07172  -0.0246  0.0167  1.0000  -6.9318   0.0000   0.0000   0.0000   0.2500
  14.800   1.2584   0.07847   0.07406  -0.0256  0.0167  1.0000  -6.9224   0.0000   0.0000   0.0000   0.2507
  14.900   1.2532   0.08082   0.07649  -0.0266  0.0166  1.0000  -6.9096   0.0000   0.0000   0.0000   0.2515
  15.000   1.2476   0.08330   0.07905  -0.0278  0.0166  1.0000  -6.8913   0.0000   0.0000   0.0000   0.2523


