xflr5 v6.61

 Calculated polar for: SD7037-092-88

 1 1 Reynolds number fixed          Mach number fixed         

 xtrf =   1.000 (top)        1.000 (bottom)
 Mach =   0.000     Re =     0.450 e 6     Ncrit =   9.000

  alpha     CL        CD       CDp       Cm    Top Xtr Bot Xtr   Cpmin    Chinge    XCp    
 ------- -------- --------- --------- -------- ------- ------- -------- --------- ---------
 -10.000  -0.3745   0.10414   0.10163  -0.0303  1.0000  0.0169  -1.8551   0.0000   0.0000   0.0000   0.1614
  -9.900  -0.3728   0.10300   0.10050  -0.0305  1.0000  0.0170  -1.8451   0.0000   0.0000   0.0000   0.1606
  -9.800  -0.3713   0.10185   0.09936  -0.0308  1.0000  0.0172  -1.8374   0.0000   0.0000   0.0000   0.1597
  -9.700  -0.3699   0.10069   0.09820  -0.0310  1.0000  0.0173  -1.8320   0.0000   0.0000   0.0000   0.1588
  -9.600  -0.3686   0.09952   0.09704  -0.0313  1.0000  0.0174  -1.8285   0.0000   0.0000   0.0000   0.1579
  -9.500  -0.3674   0.09834   0.09587  -0.0315  1.0000  0.0176  -1.8268   0.0000   0.0000   0.0000   0.1570
  -9.400  -0.3664   0.09715   0.09470  -0.0318  1.0000  0.0177  -1.8268   0.0000   0.0000   0.0000   0.1561
  -9.300  -0.3655   0.09596   0.09352  -0.0321  1.0000  0.0179  -1.8285   0.0000   0.0000   0.0000   0.1552
  -9.200  -0.3648   0.09477   0.09234  -0.0324  1.0000  0.0180  -1.8317   0.0000   0.0000   0.0000   0.1544
  -9.100  -0.3642   0.09356   0.09114  -0.0326  1.0000  0.0182  -1.8365   0.0000   0.0000   0.0000   0.1536
  -9.000  -0.3638   0.09236   0.08995  -0.0329  1.0000  0.0184  -1.8428   0.0000   0.0000   0.0000   0.1528
  -8.900  -0.3635   0.09115   0.08875  -0.0331  1.0000  0.0186  -1.8507   0.0000   0.0000   0.0000   0.1522
  -8.800  -0.3636   0.08995   0.08756  -0.0334  1.0000  0.0187  -1.8601   0.0000   0.0000   0.0000   0.1517
  -8.700  -0.3639   0.08875   0.08638  -0.0336  1.0000  0.0189  -1.8711   0.0000   0.0000   0.0000   0.1513
  -8.600  -0.3645   0.08757   0.08521  -0.0337  1.0000  0.0191  -1.8837   0.0000   0.0000   0.0000   0.1512
  -8.500  -0.3655   0.08640   0.08406  -0.0338  1.0000  0.0193  -1.8978   0.0000   0.0000   0.0000   0.1513
  -8.400  -0.3670   0.08526   0.08294  -0.0338  1.0000  0.0195  -1.9134   0.0000   0.0000   0.0000   0.1518
  -8.300  -0.3692   0.08416   0.08186  -0.0337  1.0000  0.0196  -1.9307   0.0000   0.0000   0.0000   0.1527
  -8.200  -0.3720   0.08311   0.08083  -0.0335  1.0000  0.0198  -1.9491   0.0000   0.0000   0.0000   0.1542
  -8.100  -0.3756   0.08213   0.07987  -0.0331  1.0000  0.0199  -1.9688   0.0000   0.0000   0.0000   0.1563
  -8.000  -0.3800   0.08122   0.07898  -0.0325  1.0000  0.0201  -1.9894   0.0000   0.0000   0.0000   0.1591
  -7.900  -0.3854   0.08039   0.07817  -0.0317  1.0000  0.0202  -2.0107   0.0000   0.0000   0.0000   0.1625
  -7.800  -0.3916   0.07963   0.07744  -0.0307  1.0000  0.0202  -2.0325   0.0000   0.0000   0.0000   0.1664
  -7.700  -0.3986   0.07894   0.07678  -0.0296  1.0000  0.0203  -2.0542   0.0000   0.0000   0.0000   0.1708
  -7.600  -0.4065   0.07834   0.07619  -0.0283  1.0000  0.0203  -2.0761   0.0000   0.0000   0.0000   0.1755
  -7.500  -0.4153   0.07781   0.07569  -0.0269  1.0000  0.0203  -2.0980   0.0000   0.0000   0.0000   0.1806
  -7.400  -0.4248   0.07732   0.07523  -0.0254  1.0000  0.0202  -2.1200   0.0000   0.0000   0.0000   0.1858
  -7.300  -0.4197   0.07497   0.07288  -0.0289  0.9985  0.0206  -2.1574   0.0000   0.0000   0.0000   0.1768
  -7.200  -0.4090   0.07166   0.06957  -0.0347  0.9962  0.0212  -2.2170   0.0000   0.0000   0.0000   0.1608
  -7.100  -0.3958   0.06772   0.06561  -0.0422  0.9939  0.0220  -2.3177   0.0000   0.0000   0.0000   0.1388
  -7.000  -0.3781   0.06427   0.06210  -0.0493  0.9921  0.0228  -2.3987   0.0000   0.0000   0.0000   0.1149
  -6.900  -0.3645   0.06058   0.05834  -0.0551  0.9907  0.0229  -2.4821   0.0000   0.0000   0.0000   0.0939
  -6.800  -0.3571   0.05756   0.05524  -0.0585  0.9882  0.0230  -2.5576   0.0000   0.0000   0.0000   0.0812
  -6.700  -0.3491   0.05462   0.05220  -0.0617  0.9856  0.0231  -2.6317   0.0000   0.0000   0.0000   0.0683
  -6.600  -0.3406   0.05187   0.04933  -0.0646  0.9832  0.0231  -2.6974   0.0000   0.0000   0.0000   0.0551
  -6.500  -0.3454   0.04325   0.04045  -0.0708  0.9794  0.0240  -3.0333   0.0000   0.0000   0.0000   0.0397
  -6.400  -0.3364   0.04122   0.03836  -0.0727  0.9780  0.0246  -3.0017   0.0000   0.0000   0.0000   0.0285
  -6.300  -0.3249   0.04045   0.03761  -0.0738  0.9771  0.0250  -2.9055   0.0000   0.0000   0.0000   0.0174
  -6.200  -0.3128   0.03966   0.03680  -0.0751  0.9762  0.0255  -2.8176   0.0000   0.0000   0.0000   0.0046
  -6.100  -0.3003   0.03875   0.03584  -0.0765  0.9753  0.0261  -2.7410   0.0000   0.0000   0.0000  -0.0101
  -6.000  -0.2873   0.03766   0.03469  -0.0780  0.9745  0.0270  -2.6823   0.0000   0.0000   0.0000  -0.0271
  -5.900  -0.2738   0.03640   0.03334  -0.0796  0.9737  0.0280  -2.6414   0.0000   0.0000   0.0000  -0.0465
  -5.800  -0.2595   0.03507   0.03190  -0.0812  0.9730  0.0296  -2.6157   0.0000   0.0000   0.0000  -0.0688
  -5.700  -0.2430   0.03445   0.03118  -0.0823  0.9725  0.0318  -2.5769   0.0000   0.0000   0.0000  -0.0948
  -5.600  -0.2295   0.03652   0.03319  -0.0810  0.9700  0.0335  -2.4613   0.0000   0.0000   0.0000  -0.1094
  -5.500  -0.2207   0.03573   0.03227  -0.0811  0.9672  0.0336  -2.4367   0.0000   0.0000   0.0000  -0.1241
  -5.300  -0.2106   0.02743   0.02342  -0.0840  0.9617  0.0360  -2.6203   0.0000   0.0000   0.0000  -0.1557
  -5.200  -0.1984   0.02630   0.02224  -0.0849  0.9604  0.0368  -2.5509   0.0000   0.0000   0.0000  -0.1853
  -5.100  -0.1853   0.02547   0.02138  -0.0857  0.9593  0.0376  -2.4705   0.0000   0.0000   0.0000  -0.2204
  -5.000  -0.1722   0.02482   0.02071  -0.0865  0.9582  0.0385  -2.3817   0.0000   0.0000   0.0000  -0.2602
  -4.700  -0.1316   0.01811   0.01290  -0.0870  0.9544  0.0243  -2.6503   0.0000   0.0000   0.0000  -0.4218
  -4.600  -0.1164   0.01829   0.01306  -0.0875  0.9534  0.0236  -2.5377   0.0000   0.0000   0.0000  -0.5134
  -4.500  -0.1039   0.01676   0.01144  -0.0879  0.9522  0.0219  -2.5201   0.0000   0.0000   0.0000  -0.6091
  -4.400  -0.0911   0.01572   0.01026  -0.0882  0.9510  0.0212  -2.4820   0.0000   0.0000   0.0000  -0.7331
  -4.300  -0.0806   0.01498   0.00942  -0.0880  0.9490  0.0207  -2.4383   0.0000   0.0000   0.0000  -0.8573
  -4.200  -0.0725   0.01438   0.00875  -0.0872  0.9460  0.0202  -2.3990   0.0000   0.0000   0.0000  -0.9705
  -4.100  -0.0628   0.01381   0.00811  -0.0868  0.9432  0.0198  -2.3817   0.0000   0.0000   0.0000  -1.1517
  -4.000  -0.0521   0.01328   0.00748  -0.0866  0.9407  0.0195  -2.3592   0.0000   0.0000   0.0000  -1.4345
  -3.900  -0.0409   0.01280   0.00695  -0.0864  0.9384  0.0193  -2.3301   0.0000   0.0000   0.0000  -1.8936
  -3.800  -0.0294   0.01238   0.00648  -0.0864  0.9362  0.0191  -2.2951   0.0000   0.0000   0.0000  -2.7287
  -3.700  -0.0178   0.01200   0.00605  -0.0863  0.9342  0.0190  -2.2563   0.0000   0.0000   0.0000  -4.6727
  -3.600  -0.0061   0.01166   0.00566  -0.0863  0.9322  0.0189  -2.2143   0.0000   0.0000   0.0000  -14.0437
  -3.500   0.0054   0.01135   0.00532  -0.0862  0.9302  0.0189  -2.1699   0.0000   0.0000   0.0000  16.3300
  -3.400   0.0168   0.01108   0.00500  -0.0861  0.9282  0.0190  -2.1240   0.0000   0.0000   0.0000   5.4363
  -3.300   0.0279   0.01085   0.00474  -0.0860  0.9260  0.0192  -2.0773   0.0000   0.0000   0.0000   3.3655
  -3.200   0.0371   0.01064   0.00451  -0.0855  0.9228  0.0194  -2.0341   0.0000   0.0000   0.0000   2.5774
  -3.100   0.0470   0.01044   0.00428  -0.0851  0.9195  0.0197  -1.9891   0.0000   0.0000   0.0000   2.0799
  -3.000   0.0573   0.01025   0.00406  -0.0848  0.9163  0.0201  -1.9432   0.0000   0.0000   0.0000   1.7437
  -2.900   0.0680   0.01007   0.00385  -0.0846  0.9132  0.0207  -1.8975   0.0000   0.0000   0.0000   1.5050
  -2.800   0.0789   0.00990   0.00364  -0.0844  0.9104  0.0215  -1.8528   0.0000   0.0000   0.0000   1.3289
  -2.700   0.0898   0.00974   0.00345  -0.0841  0.9078  0.0226  -1.8091   0.0000   0.0000   0.0000   1.1948
  -2.600   0.1008   0.00953   0.00318  -0.0839  0.9053  0.0253  -1.7884   0.0000   0.0000   0.0000   1.0890
  -2.500   0.1119   0.00933   0.00300  -0.0837  0.9027  0.0314  -1.7534   0.0000   0.0000   0.0000   1.0040
  -2.400   0.1216   0.00900   0.00283  -0.0834  0.8992  0.0672  -1.7265   0.0000   0.0000   0.0000   0.9411
  -2.300   0.1314   0.00874   0.00273  -0.0832  0.8954  0.1096  -1.6709   0.0000   0.0000   0.0000   0.8877
  -2.200   0.1415   0.00853   0.00265  -0.0830  0.8916  0.1444  -1.6044   0.0000   0.0000   0.0000   0.8404
  -2.100   0.1517   0.00830   0.00257  -0.0828  0.8880  0.1892  -1.5341   0.0000   0.0000   0.0000   0.7995
  -2.000   0.1619   0.00807   0.00250  -0.0827  0.8846  0.2349  -1.4619   0.0000   0.0000   0.0000   0.7634
  -1.900   0.1723   0.00783   0.00243  -0.0826  0.8814  0.2879  -1.3888   0.0000   0.0000   0.0000   0.7315
  -1.800   0.1829   0.00764   0.00237  -0.0824  0.8783  0.3355  -1.3148   0.0000   0.0000   0.0000   0.7027
  -1.700   0.1929   0.00748   0.00233  -0.0822  0.8740  0.3729  -1.2431   0.0000   0.0000   0.0000   0.6780
  -1.600   0.2031   0.00733   0.00229  -0.0820  0.8694  0.4116  -1.1712   0.0000   0.0000   0.0000   0.6554
  -1.500   0.2133   0.00716   0.00225  -0.0818  0.8649  0.4532  -1.0995   0.0000   0.0000   0.0000   0.6348
  -1.400   0.2235   0.00699   0.00220  -0.0816  0.8607  0.4985  -1.0278   0.0000   0.0000   0.0000   0.6160
  -1.300   0.2334   0.00677   0.00216  -0.0813  0.8568  0.5604  -0.9540   0.0000   0.0000   0.0000   0.5989
  -1.200   0.2429   0.00656   0.00215  -0.0808  0.8527  0.6283  -0.8872   0.0000   0.0000   0.0000   0.5834
  -1.100   0.2518   0.00637   0.00217  -0.0803  0.8474  0.6870  -0.8229   0.0000   0.0000   0.0000   0.5692
  -1.000   0.2609   0.00623   0.00217  -0.0797  0.8420  0.7340  -0.7590   0.0000   0.0000   0.0000   0.5556
  -0.900   0.2701   0.00612   0.00215  -0.0790  0.8369  0.7711  -0.6956   0.0000   0.0000   0.0000   0.5426
  -0.700   0.2878   0.00595   0.00212  -0.0775  0.8270  0.8354  -0.5736   0.0000   0.0000   0.0000   0.5191
  -0.600   0.2962   0.00588   0.00211  -0.0766  0.8210  0.8648  -0.5324   0.0000   0.0000   0.0000   0.5085
  -0.500   0.3049   0.00582   0.00208  -0.0758  0.8149  0.8899  -0.5414   0.0000   0.0000   0.0000   0.4983
  -0.400   0.3147   0.00579   0.00204  -0.0753  0.8093  0.9116  -0.5515   0.0000   0.0000   0.0000   0.4886
  -0.300   0.3262   0.00576   0.00200  -0.0751  0.8037  0.9315  -0.5628   0.0000   0.0000   0.0000   0.4795
  -0.200   0.3404   0.00574   0.00197  -0.0756  0.7972  0.9521  -0.5758   0.0000   0.0000   0.0000   0.4712
  -0.100   0.3574   0.00572   0.00191  -0.0767  0.7905  0.9709  -0.5904   0.0000   0.0000   0.0000   0.4636
   0.000   0.3765   0.00571   0.00183  -0.0783  0.7841  0.9863  -0.6065   0.0000   0.0000   0.0000   0.4569
   0.100   0.3949   0.00570   0.00179  -0.0798  0.7771  0.9992  -0.6234   0.0000   0.0000   0.0000   0.4510
   0.200   0.4053   0.00572   0.00177  -0.0796  0.7694  1.0000  -0.6352   0.0000   0.0000   0.0000   0.4452
   0.300   0.4152   0.00576   0.00173  -0.0793  0.7618  1.0000  -0.6468   0.0000   0.0000   0.0000   0.4397
   0.400   0.4252   0.00580   0.00172  -0.0790  0.7545  1.0000  -0.6584   0.0000   0.0000   0.0000   0.4344
   0.500   0.4353   0.00583   0.00171  -0.0788  0.7462  1.0000  -0.6701   0.0000   0.0000   0.0000   0.4294
   0.600   0.4453   0.00588   0.00169  -0.0785  0.7382  1.0000  -0.6826   0.0000   0.0000   0.0000   0.4246
   0.700   0.4556   0.00592   0.00168  -0.0782  0.7306  1.0000  -0.6957   0.0000   0.0000   0.0000   0.4201
   0.800   0.4658   0.00596   0.00168  -0.0780  0.7223  1.0000  -0.7089   0.0000   0.0000   0.0000   0.4157
   0.900   0.4760   0.00602   0.00168  -0.0778  0.7141  1.0000  -0.7221   0.0000   0.0000   0.0000   0.4115
   1.000   0.4863   0.00606   0.00168  -0.0775  0.7063  1.0000  -0.7354   0.0000   0.0000   0.0000   0.4075
   1.100   0.4967   0.00611   0.00169  -0.0774  0.6979  1.0000  -0.7488   0.0000   0.0000   0.0000   0.4037
   1.200   0.5069   0.00617   0.00169  -0.0771  0.6896  1.0000  -0.7624   0.0000   0.0000   0.0000   0.4001
   1.300   0.5173   0.00622   0.00170  -0.0769  0.6818  1.0000  -0.7775   0.0000   0.0000   0.0000   0.3966
   1.400   0.5278   0.00628   0.00171  -0.0768  0.6731  1.0000  -0.7926   0.0000   0.0000   0.0000   0.3932
   1.500   0.5380   0.00635   0.00172  -0.0765  0.6647  1.0000  -0.8076   0.0000   0.0000   0.0000   0.3899
   1.600   0.5485   0.00640   0.00174  -0.0764  0.6568  1.0000  -0.8229   0.0000   0.0000   0.0000   0.3868
   1.700   0.5589   0.00646   0.00176  -0.0762  0.6483  1.0000  -0.8382   0.0000   0.0000   0.0000   0.3838
   1.800   0.5691   0.00654   0.00177  -0.0760  0.6400  1.0000  -0.8534   0.0000   0.0000   0.0000   0.3809
   1.900   0.5797   0.00659   0.00180  -0.0758  0.6319  1.0000  -0.8688   0.0000   0.0000   0.0000   0.3782
   2.000   0.5901   0.00665   0.00182  -0.0757  0.6230  1.0000  -0.8853   0.0000   0.0000   0.0000   0.3755
   2.200   0.6109   0.00679   0.00187  -0.0753  0.6065  1.0000  -0.9203   0.0000   0.0000   0.0000   0.3704
   2.300   0.6213   0.00686   0.00190  -0.0751  0.5979  1.0000  -0.9379   0.0000   0.0000   0.0000   0.3680
   2.400   0.6314   0.00695   0.00193  -0.0749  0.5898  1.0000  -0.9553   0.0000   0.0000   0.0000   0.3656
   2.500   0.6421   0.00700   0.00197  -0.0748  0.5815  1.0000  -0.9733   0.0000   0.0000   0.0000   0.3634
   2.600   0.6524   0.00708   0.00202  -0.0746  0.5723  1.0000  -0.9910   0.0000   0.0000   0.0000   0.3612
   2.700   0.6626   0.00717   0.00205  -0.0744  0.5638  1.0000  -1.0087   0.0000   0.0000   0.0000   0.3590
   2.800   0.6732   0.00723   0.00209  -0.0743  0.5551  1.0000  -1.0289   0.0000   0.0000   0.0000   0.3570
   2.900   0.6834   0.00732   0.00213  -0.0741  0.5464  1.0000  -1.0493   0.0000   0.0000   0.0000   0.3550
   3.000   0.6937   0.00740   0.00217  -0.0740  0.5388  1.0000  -1.0699   0.0000   0.0000   0.0000   0.3531
   3.100   0.7043   0.00746   0.00222  -0.0738  0.5305  1.0000  -1.0908   0.0000   0.0000   0.0000   0.3512
   3.200   0.7144   0.00756   0.00226  -0.0736  0.5215  1.0000  -1.1115   0.0000   0.0000   0.0000   0.3494
   3.300   0.7248   0.00764   0.00231  -0.0735  0.5131  1.0000  -1.1323   0.0000   0.0000   0.0000   0.3476
   3.400   0.7352   0.00772   0.00236  -0.0733  0.5038  1.0000  -1.1534   0.0000   0.0000   0.0000   0.3459
   3.500   0.7451   0.00783   0.00241  -0.0731  0.4946  1.0000  -1.1740   0.0000   0.0000   0.0000   0.3441
   3.600   0.7556   0.00790   0.00247  -0.0730  0.4863  1.0000  -1.1980   0.0000   0.0000   0.0000   0.3425
   3.700   0.7659   0.00799   0.00252  -0.0728  0.4776  1.0000  -1.2225   0.0000   0.0000   0.0000   0.3409
   3.900   0.7865   0.00817   0.00264  -0.0725  0.4614  1.0000  -1.2718   0.0000   0.0000   0.0000   0.3378
   4.000   0.7966   0.00827   0.00270  -0.0723  0.4521  1.0000  -1.2965   0.0000   0.0000   0.0000   0.3364
   4.100   0.8066   0.00839   0.00280  -0.0721  0.4432  1.0000  -1.3211   0.0000   0.0000   0.0000   0.3349
   4.200   0.8170   0.00847   0.00286  -0.0720  0.4339  1.0000  -1.3464   0.0000   0.0000   0.0000   0.3335
   4.300   0.8269   0.00859   0.00293  -0.0718  0.4243  1.0000  -1.3711   0.0000   0.0000   0.0000   0.3321
   4.400   0.8371   0.00868   0.00300  -0.0716  0.4160  1.0000  -1.3964   0.0000   0.0000   0.0000   0.3307
   4.500   0.8474   0.00878   0.00308  -0.0715  0.4074  1.0000  -1.4291   0.0000   0.0000   0.0000   0.3294
   4.600   0.8572   0.00891   0.00316  -0.0713  0.3988  1.0000  -1.4636   0.0000   0.0000   0.0000   0.3281
   4.700   0.8676   0.00900   0.00323  -0.0711  0.3907  1.0000  -1.4993   0.0000   0.0000   0.0000   0.3269
   4.800   0.8776   0.00911   0.00331  -0.0709  0.3812  1.0000  -1.5346   0.0000   0.0000   0.0000   0.3256
   4.900   0.8873   0.00925   0.00340  -0.0707  0.3720  1.0000  -1.5696   0.0000   0.0000   0.0000   0.3244
   5.000   0.8976   0.00935   0.00348  -0.0706  0.3629  1.0000  -1.6058   0.0000   0.0000   0.0000   0.3232
   5.100   0.9072   0.00949   0.00358  -0.0703  0.3533  1.0000  -1.6412   0.0000   0.0000   0.0000   0.3220
   5.200   0.9173   0.00960   0.00367  -0.0702  0.3452  1.0000  -1.6774   0.0000   0.0000   0.0000   0.3209
   5.300   0.9274   0.00971   0.00376  -0.0700  0.3369  1.0000  -1.7186   0.0000   0.0000   0.0000   0.3197
   5.400   0.9370   0.00986   0.00386  -0.0698  0.3284  1.0000  -1.7596   0.0000   0.0000   0.0000   0.3186
   5.500   0.9471   0.00997   0.00399  -0.0696  0.3210  1.0000  -1.8057   0.0000   0.0000   0.0000   0.3175
   5.600   0.9572   0.01008   0.00409  -0.0694  0.3128  1.0000  -1.8838   0.0000   0.0000   0.0000   0.3165
   5.700   0.9666   0.01025   0.00420  -0.0692  0.3040  1.0000  -1.9616   0.0000   0.0000   0.0000   0.3154
   5.800   0.9766   0.01036   0.00430  -0.0690  0.2956  1.0000  -2.0430   0.0000   0.0000   0.0000   0.3144
   5.900   0.9862   0.01052   0.00442  -0.0688  0.2854  1.0000  -2.1238   0.0000   0.0000   0.0000   0.3134
   6.000   0.9956   0.01068   0.00453  -0.0685  0.2756  1.0000  -2.2051   0.0000   0.0000   0.0000   0.3123
   6.100   1.0053   0.01082   0.00465  -0.0683  0.2653  1.0000  -2.2887   0.0000   0.0000   0.0000   0.3113
   6.200   1.0143   0.01103   0.00478  -0.0680  0.2547  1.0000  -2.3701   0.0000   0.0000   0.0000   0.3103
   6.300   1.0242   0.01115   0.00489  -0.0678  0.2458  1.0000  -2.4567   0.0000   0.0000   0.0000   0.3094
   6.400   1.0333   0.01134   0.00503  -0.0676  0.2357  1.0000  -2.5406   0.0000   0.0000   0.0000   0.3084
   6.500   1.0428   0.01150   0.00515  -0.0673  0.2270  1.0000  -2.6272   0.0000   0.0000   0.0000   0.3075
   6.600   1.0523   0.01166   0.00528  -0.0671  0.2176  1.0000  -2.7144   0.0000   0.0000   0.0000   0.3066
   6.700   1.0611   0.01188   0.00544  -0.0668  0.2081  1.0000  -2.7997   0.0000   0.0000   0.0000   0.3056
   6.800   1.0710   0.01200   0.00556  -0.0666  0.2012  1.0000  -2.8904   0.0000   0.0000   0.0000   0.3048
   6.900   1.0802   0.01218   0.00573  -0.0663  0.1931  1.0000  -2.9816   0.0000   0.0000   0.0000   0.3039
   7.000   1.0891   0.01238   0.00589  -0.0660  0.1850  1.0000  -3.0709   0.0000   0.0000   0.0000   0.3030
   7.100   1.0989   0.01251   0.00602  -0.0658  0.1787  1.0000  -3.1641   0.0000   0.0000   0.0000   0.3021
   7.200   1.1080   0.01270   0.00618  -0.0655  0.1711  1.0000  -3.2550   0.0000   0.0000   0.0000   0.3012
   7.300   1.1166   0.01292   0.00635  -0.0652  0.1630  1.0000  -3.3442   0.0000   0.0000   0.0000   0.3004
   7.400   1.1263   0.01305   0.00649  -0.0650  0.1573  1.0000  -3.4390   0.0000   0.0000   0.0000   0.2995
   7.500   1.1353   0.01324   0.00665  -0.0647  0.1499  1.0000  -3.5317   0.0000   0.0000   0.0000   0.2987
   7.600   1.1437   0.01349   0.00684  -0.0643  0.1416  1.0000  -3.6214   0.0000   0.0000   0.0000   0.2978
   7.700   1.1531   0.01363   0.00699  -0.0641  0.1360  1.0000  -3.7170   0.0000   0.0000   0.0000   0.2971
   7.800   1.1619   0.01384   0.00716  -0.0638  0.1280  1.0000  -3.8101   0.0000   0.0000   0.0000   0.2962
   7.900   1.1700   0.01411   0.00737  -0.0634  0.1191  1.0000  -3.9002   0.0000   0.0000   0.0000   0.2954
   8.000   1.1791   0.01427   0.00753  -0.0631  0.1136  1.0000  -3.9963   0.0000   0.0000   0.0000   0.2946
   8.100   1.1878   0.01448   0.00772  -0.0628  0.1073  1.0000  -4.0899   0.0000   0.0000   0.0000   0.2938
   8.200   1.1959   0.01474   0.00793  -0.0624  0.1002  1.0000  -4.1809   0.0000   0.0000   0.0000   0.2930
   8.300   1.2048   0.01492   0.00812  -0.0621  0.0955  1.0000  -4.2760   0.0000   0.0000   0.0000   0.2922
   8.400   1.2134   0.01513   0.00831  -0.0617  0.0899  1.0000  -4.3697   0.0000   0.0000   0.0000   0.2914
   8.500   1.2211   0.01541   0.00854  -0.0613  0.0828  1.0000  -4.4592   0.0000   0.0000   0.0000   0.2906
   8.600   1.2294   0.01564   0.00878  -0.0609  0.0769  1.0000  -4.5493   0.0000   0.0000   0.0000   0.2898
   8.700   1.2376   0.01586   0.00900  -0.0605  0.0714  1.0000  -4.6399   0.0000   0.0000   0.0000   0.2890
   8.800   1.2448   0.01618   0.00926  -0.0600  0.0641  1.0000  -4.7243   0.0000   0.0000   0.0000   0.2882
   8.900   1.2526   0.01645   0.00951  -0.0595  0.0576  1.0000  -4.8086   0.0000   0.0000   0.0000   0.2874
   9.000   1.2593   0.01680   0.00981  -0.0589  0.0495  1.0000  -4.8855   0.0000   0.0000   0.0000   0.2865
   9.100   1.2654   0.01721   0.01015  -0.0582  0.0402  1.0000  -4.9538   0.0000   0.0000   0.0000   0.2856
   9.200   1.2702   0.01774   0.01059  -0.0573  0.0298  1.0000  -5.0083   0.0000   0.0000   0.0000   0.2846
   9.300   1.2748   0.01827   0.01105  -0.0564  0.0228  1.0000  -5.0577   0.0000   0.0000   0.0000   0.2836
   9.400   1.2807   0.01868   0.01147  -0.0556  0.0192  1.0000  -5.1065   0.0000   0.0000   0.0000   0.2826
   9.500   1.2871   0.01902   0.01182  -0.0549  0.0176  1.0000  -5.1690   0.0000   0.0000   0.0000   0.2817
   9.600   1.2930   0.01940   0.01220  -0.0542  0.0164  1.0000  -5.2312   0.0000   0.0000   0.0000   0.2808
   9.700   1.2986   0.01980   0.01262  -0.0534  0.0154  1.0000  -5.2875   0.0000   0.0000   0.0000   0.2799
   9.800   1.3034   0.02025   0.01311  -0.0524  0.0145  1.0000  -5.3531   0.0000   0.0000   0.0000   0.2789
   9.900   1.3072   0.02076   0.01369  -0.0513  0.0138  1.0000  -5.4151   0.0000   0.0000   0.0000   0.2778
  10.000   1.3118   0.02116   0.01413  -0.0504  0.0135  1.0000  -5.4930   0.0000   0.0000   0.0000   0.2767
  10.100   1.3166   0.02148   0.01451  -0.0494  0.0134  1.0000  -5.5771   0.0000   0.0000   0.0000   0.2757
  10.200   1.3208   0.02183   0.01490  -0.0484  0.0132  1.0000  -5.6578   0.0000   0.0000   0.0000   0.2747
  10.300   1.3245   0.02219   0.01530  -0.0473  0.0131  1.0000  -5.7359   0.0000   0.0000   0.0000   0.2736
  10.400   1.3280   0.02256   0.01572  -0.0461  0.0129  1.0000  -5.8122   0.0000   0.0000   0.0000   0.2725
  10.500   1.3311   0.02296   0.01616  -0.0450  0.0128  1.0000  -5.8866   0.0000   0.0000   0.0000   0.2714
  10.600   1.3340   0.02337   0.01662  -0.0438  0.0127  1.0000  -5.9596   0.0000   0.0000   0.0000   0.2703
  10.700   1.3367   0.02380   0.01710  -0.0427  0.0126  1.0000  -6.0316   0.0000   0.0000   0.0000   0.2693
  10.800   1.3392   0.02425   0.01760  -0.0415  0.0125  1.0000  -6.1018   0.0000   0.0000   0.0000   0.2682
  10.900   1.3413   0.02472   0.01815  -0.0403  0.0124  1.0000  -6.1682   0.0000   0.0000   0.0000   0.2671
  11.000   1.3435   0.02521   0.01869  -0.0392  0.0123  1.0000  -6.2366   0.0000   0.0000   0.0000   0.2661
  11.100   1.3455   0.02571   0.01924  -0.0381  0.0122  1.0000  -6.3047   0.0000   0.0000   0.0000   0.2651
  11.200   1.3473   0.02623   0.01981  -0.0370  0.0121  1.0000  -6.3730   0.0000   0.0000   0.0000   0.2641
  11.300   1.3492   0.02676   0.02038  -0.0360  0.0120  1.0000  -6.4421   0.0000   0.0000   0.0000   0.2631
  11.400   1.3509   0.02731   0.02098  -0.0350  0.0119  1.0000  -6.5107   0.0000   0.0000   0.0000   0.2622
  11.500   1.3525   0.02787   0.02159  -0.0340  0.0118  1.0000  -6.5792   0.0000   0.0000   0.0000   0.2613
  11.600   1.3542   0.02845   0.02221  -0.0330  0.0117  1.0000  -6.6483   0.0000   0.0000   0.0000   0.2604
  11.700   1.3556   0.02904   0.02286  -0.0321  0.0116  1.0000  -6.7167   0.0000   0.0000   0.0000   0.2595
  11.800   1.3570   0.02966   0.02352  -0.0312  0.0114  1.0000  -6.7851   0.0000   0.0000   0.0000   0.2587
  11.900   1.3584   0.03030   0.02420  -0.0304  0.0113  1.0000  -6.8538   0.0000   0.0000   0.0000   0.2578
  12.000   1.3595   0.03096   0.02490  -0.0295  0.0112  1.0000  -6.9208   0.0000   0.0000   0.0000   0.2571
  12.100   1.3606   0.03164   0.02563  -0.0288  0.0111  1.0000  -6.9873   0.0000   0.0000   0.0000   0.2563
  12.200   1.3615   0.03235   0.02639  -0.0280  0.0110  1.0000  -7.0529   0.0000   0.0000   0.0000   0.2555
  12.300   1.3621   0.03309   0.02718  -0.0273  0.0109  1.0000  -7.1163   0.0000   0.0000   0.0000   0.2548
  12.400   1.3627   0.03387   0.02800  -0.0266  0.0109  1.0000  -7.1787   0.0000   0.0000   0.0000   0.2541
  12.500   1.3630   0.03469   0.02887  -0.0259  0.0108  1.0000  -7.2378   0.0000   0.0000   0.0000   0.2535
  12.600   1.3630   0.03555   0.02978  -0.0253  0.0107  1.0000  -7.2942   0.0000   0.0000   0.0000   0.2528
  12.700   1.3628   0.03645   0.03074  -0.0247  0.0107  1.0000  -7.3474   0.0000   0.0000   0.0000   0.2522
  12.800   1.3625   0.03738   0.03172  -0.0241  0.0106  1.0000  -7.3995   0.0000   0.0000   0.0000   0.2517
  12.900   1.3622   0.03835   0.03275  -0.0237  0.0106  1.0000  -7.4507   0.0000   0.0000   0.0000   0.2511
  13.000   1.3617   0.03936   0.03381  -0.0232  0.0106  1.0000  -7.5004   0.0000   0.0000   0.0000   0.2506
  13.100   1.3611   0.04040   0.03490  -0.0228  0.0105  1.0000  -7.5495   0.0000   0.0000   0.0000   0.2502
  13.200   1.3604   0.04148   0.03604  -0.0225  0.0105  1.0000  -7.5967   0.0000   0.0000   0.0000   0.2497
  13.300   1.3596   0.04259   0.03720  -0.0222  0.0105  1.0000  -7.6432   0.0000   0.0000   0.0000   0.2493
  13.400   1.3586   0.04375   0.03842  -0.0219  0.0104  1.0000  -7.6874   0.0000   0.0000   0.0000   0.2490
  13.500   1.3576   0.04493   0.03966  -0.0217  0.0104  1.0000  -7.7308   0.0000   0.0000   0.0000   0.2487
  13.600   1.3563   0.04616   0.04095  -0.0216  0.0104  1.0000  -7.7719   0.0000   0.0000   0.0000   0.2484
  13.700   1.3551   0.04743   0.04227  -0.0215  0.0103  1.0000  -7.8126   0.0000   0.0000   0.0000   0.2482
  13.800   1.3536   0.04875   0.04365  -0.0215  0.0103  1.0000  -7.8507   0.0000   0.0000   0.0000   0.2480
  13.900   1.3522   0.05009   0.04505  -0.0215  0.0103  1.0000  -7.8884   0.0000   0.0000   0.0000   0.2478
  14.000   1.3505   0.05150   0.04652  -0.0216  0.0103  1.0000  -7.9233   0.0000   0.0000   0.0000   0.2477
  14.100   1.3487   0.05294   0.04801  -0.0217  0.0102  1.0000  -7.9575   0.0000   0.0000   0.0000   0.2476
  14.200   1.3468   0.05443   0.04957  -0.0219  0.0102  1.0000  -7.9887   0.0000   0.0000   0.0000   0.2476
  14.300   1.3447   0.05596   0.05116  -0.0222  0.0102  1.0000  -8.0190   0.0000   0.0000   0.0000   0.2476
  14.400   1.3424   0.05755   0.05280  -0.0225  0.0102  1.0000  -8.0459   0.0000   0.0000   0.0000   0.2477
  14.500   1.3400   0.05916   0.05448  -0.0228  0.0101  1.0000  -8.0717   0.0000   0.0000   0.0000   0.2478
  14.600   1.3374   0.06085   0.05624  -0.0233  0.0101  1.0000  -8.0947   0.0000   0.0000   0.0000   0.2479
  14.700   1.3348   0.06258   0.05803  -0.0237  0.0101  1.0000  -8.1165   0.0000   0.0000   0.0000   0.2481
  14.800   1.3320   0.06438   0.05988  -0.0243  0.0101  1.0000  -8.1355   0.0000   0.0000   0.0000   0.2483
  14.900   1.3291   0.06622   0.06179  -0.0248  0.0101  1.0000  -8.1527   0.0000   0.0000   0.0000   0.2486
  15.000   1.3260   0.06813   0.06376  -0.0255  0.0100  1.0000  -8.1674   0.0000   0.0000   0.0000   0.2490


