xflr5 v6.61

 Calculated polar for: SD7037-092-88

 1 1 Reynolds number fixed          Mach number fixed         

 xtrf =   1.000 (top)        1.000 (bottom)
 Mach =   0.000     Re =     0.200 e 6     Ncrit =   9.000

  alpha     CL        CD       CDp       Cm    Top Xtr Bot Xtr   Cpmin    Chinge    XCp    
 ------- -------- --------- --------- -------- ------- ------- -------- --------- ---------
 -10.000  -0.3710   0.10876   0.10505  -0.0304  1.0000  0.0369  -1.6323   0.0000   0.0000   0.0000   0.1608
  -9.900  -0.3686   0.10761   0.10391  -0.0304  1.0000  0.0373  -1.6194   0.0000   0.0000   0.0000   0.1603
  -9.800  -0.3665   0.10646   0.10277  -0.0305  1.0000  0.0377  -1.6097   0.0000   0.0000   0.0000   0.1597
  -9.700  -0.3646   0.10531   0.10163  -0.0306  1.0000  0.0381  -1.6028   0.0000   0.0000   0.0000   0.1590
  -9.600  -0.3629   0.10417   0.10050  -0.0307  1.0000  0.0385  -1.5982   0.0000   0.0000   0.0000   0.1583
  -9.500  -0.3614   0.10302   0.09936  -0.0309  1.0000  0.0389  -1.5958   0.0000   0.0000   0.0000   0.1576
  -9.400  -0.3601   0.10187   0.09823  -0.0311  1.0000  0.0394  -1.5954   0.0000   0.0000   0.0000   0.1569
  -9.300  -0.3590   0.10072   0.09709  -0.0313  1.0000  0.0398  -1.5967   0.0000   0.0000   0.0000   0.1561
  -9.200  -0.3581   0.09957   0.09596  -0.0315  1.0000  0.0403  -1.5997   0.0000   0.0000   0.0000   0.1554
  -9.100  -0.3573   0.09842   0.09482  -0.0317  1.0000  0.0408  -1.6043   0.0000   0.0000   0.0000   0.1547
  -9.000  -0.3567   0.09727   0.09368  -0.0319  1.0000  0.0413  -1.6105   0.0000   0.0000   0.0000   0.1540
  -8.900  -0.3563   0.09611   0.09254  -0.0321  1.0000  0.0418  -1.6182   0.0000   0.0000   0.0000   0.1534
  -8.800  -0.3561   0.09496   0.09141  -0.0324  1.0000  0.0424  -1.6276   0.0000   0.0000   0.0000   0.1527
  -8.700  -0.3561   0.09381   0.09027  -0.0326  1.0000  0.0430  -1.6386   0.0000   0.0000   0.0000   0.1521
  -8.600  -0.3564   0.09266   0.08912  -0.0329  1.0000  0.0435  -1.6515   0.0000   0.0000   0.0000   0.1516
  -8.500  -0.3570   0.09152   0.08801  -0.0332  1.0000  0.0441  -1.6665   0.0000   0.0000   0.0000   0.1511
  -8.400  -0.3579   0.09040   0.08691  -0.0334  1.0000  0.0447  -1.6840   0.0000   0.0000   0.0000   0.1506
  -8.300  -0.3593   0.08931   0.08584  -0.0337  1.0000  0.0453  -1.7043   0.0000   0.0000   0.0000   0.1503
  -8.200  -0.3612   0.08826   0.08481  -0.0340  1.0000  0.0459  -1.7279   0.0000   0.0000   0.0000   0.1502
  -8.100  -0.3639   0.08727   0.08386  -0.0343  1.0000  0.0465  -1.7546   0.0000   0.0000   0.0000   0.1503
  -8.000  -0.3674   0.08637   0.08299  -0.0345  1.0000  0.0470  -1.7844   0.0000   0.0000   0.0000   0.1508
  -7.900  -0.3717   0.08559   0.08224  -0.0345  1.0000  0.0475  -1.8148   0.0000   0.0000   0.0000   0.1519
  -7.800  -0.3771   0.08491   0.08160  -0.0343  1.0000  0.0478  -1.8446   0.0000   0.0000   0.0000   0.1539
  -7.700  -0.3835   0.08430   0.08105  -0.0339  1.0000  0.0480  -1.8719   0.0000   0.0000   0.0000   0.1569
  -7.600  -0.3908   0.08372   0.08051  -0.0331  1.0000  0.0482  -1.8973   0.0000   0.0000   0.0000   0.1605
  -7.500  -0.3982   0.08310   0.07992  -0.0325  1.0000  0.0483  -1.9227   0.0000   0.0000   0.0000   0.1639
  -7.400  -0.4029   0.08229   0.07914  -0.0327  1.0000  0.0485  -1.9496   0.0000   0.0000   0.0000   0.1645
  -7.300  -0.4064   0.08135   0.07822  -0.0333  1.0000  0.0488  -1.9766   0.0000   0.0000   0.0000   0.1638
  -7.200  -0.4095   0.08030   0.07718  -0.0340  1.0000  0.0489  -2.0047   0.0000   0.0000   0.0000   0.1628
  -7.100  -0.4122   0.07916   0.07605  -0.0348  1.0000  0.0491  -2.0335   0.0000   0.0000   0.0000   0.1617
  -7.000  -0.4146   0.07796   0.07485  -0.0354  1.0000  0.0492  -2.0626   0.0000   0.0000   0.0000   0.1608
  -6.900  -0.4166   0.07672   0.07360  -0.0359  1.0000  0.0493  -2.0915   0.0000   0.0000   0.0000   0.1600
  -6.800  -0.4184   0.07545   0.07231  -0.0364  1.0000  0.0494  -2.1199   0.0000   0.0000   0.0000   0.1594
  -6.700  -0.4199   0.07417   0.07101  -0.0367  1.0000  0.0494  -2.1474   0.0000   0.0000   0.0000   0.1590
  -6.600  -0.4212   0.07288   0.06969  -0.0370  1.0000  0.0495  -2.1738   0.0000   0.0000   0.0000   0.1586
  -6.500  -0.4222   0.07157   0.06836  -0.0372  1.0000  0.0495  -2.1990   0.0000   0.0000   0.0000   0.1584
  -6.400  -0.4228   0.07026   0.06701  -0.0374  1.0000  0.0496  -2.2229   0.0000   0.0000   0.0000   0.1582
  -6.300  -0.4231   0.06894   0.06565  -0.0375  1.0000  0.0496  -2.2455   0.0000   0.0000   0.0000   0.1580
  -6.200  -0.4230   0.06761   0.06427  -0.0376  1.0000  0.0497  -2.2666   0.0000   0.0000   0.0000   0.1578
  -6.100  -0.4363   0.06144   0.05810  -0.0392  1.0000  0.0507  -2.4124   0.0000   0.0000   0.0000   0.1568
  -6.000  -0.4388   0.05895   0.05561  -0.0393  1.0000  0.0515  -2.4276   0.0000   0.0000   0.0000   0.1572
  -5.900  -0.4378   0.05763   0.05431  -0.0387  1.0000  0.0521  -2.4018   0.0000   0.0000   0.0000   0.1583
  -5.800  -0.4335   0.05663   0.05334  -0.0384  0.9996  0.0527  -2.3550   0.0000   0.0000   0.0000   0.1583
  -5.700  -0.4230   0.05548   0.05218  -0.0393  0.9981  0.0536  -2.2912   0.0000   0.0000   0.0000   0.1540
  -5.600  -0.4117   0.05427   0.05096  -0.0406  0.9964  0.0547  -2.2368   0.0000   0.0000   0.0000   0.1484
  -5.500  -0.3995   0.05302   0.04969  -0.0421  0.9946  0.0561  -2.1861   0.0000   0.0000   0.0000   0.1416
  -5.400  -0.3864   0.05186   0.04850  -0.0438  0.9928  0.0585  -2.1307   0.0000   0.0000   0.0000   0.1335
  -5.300  -0.3709   0.05026   0.04681  -0.0465  0.9912  0.0622  -2.1008   0.0000   0.0000   0.0000   0.1214
  -5.200  -0.3433   0.05162   0.04769  -0.0501  0.9878  0.0692  -2.1166   0.0000   0.0000   0.0000   0.1005
  -5.100  -0.3400   0.04549   0.04134  -0.0536  0.9851  0.0710  -2.2179   0.0000   0.0000   0.0000   0.0888
  -5.000  -0.3319   0.04288   0.03880  -0.0548  0.9833  0.0727  -2.1743   0.0000   0.0000   0.0000   0.0814
  -4.900  -0.3202   0.04166   0.03761  -0.0557  0.9814  0.0739  -2.1075   0.0000   0.0000   0.0000   0.0726
  -4.800  -0.3072   0.04051   0.03646  -0.0568  0.9795  0.0753  -2.0463   0.0000   0.0000   0.0000   0.0615
  -4.700  -0.2932   0.03937   0.03528  -0.0582  0.9777  0.0769  -1.9886   0.0000   0.0000   0.0000   0.0479
  -4.600  -0.2783   0.03821   0.03405  -0.0597  0.9761  0.0790  -1.9351   0.0000   0.0000   0.0000   0.0317
  -4.500  -0.2624   0.03702   0.03275  -0.0614  0.9747  0.0818  -1.8884   0.0000   0.0000   0.0000   0.0122
  -4.400  -0.2449   0.03592   0.03148  -0.0632  0.9734  0.0855  -1.8506   0.0000   0.0000   0.0000  -0.0121
  -4.300  -0.2232   0.02946   0.02407  -0.0641  0.9727  0.0474  -2.2162   0.0000   0.0000   0.0000  -0.0424
  -4.200  -0.2149   0.02690   0.02127  -0.0643  0.9700  0.0435  -2.2523   0.0000   0.0000   0.0000  -0.0544
  -4.100  -0.2022   0.02377   0.01749  -0.0640  0.9679  0.0365  -2.4143   0.0000   0.0000   0.0000  -0.0722
  -4.000  -0.1884   0.02337   0.01692  -0.0641  0.9651  0.0351  -2.3686   0.0000   0.0000   0.0000  -0.0965
  -3.900  -0.1738   0.02315   0.01662  -0.0646  0.9626  0.0344  -2.2910   0.0000   0.0000   0.0000  -0.1283
  -3.800  -0.1585   0.02291   0.01632  -0.0653  0.9604  0.0340  -2.2078   0.0000   0.0000   0.0000  -0.1687
  -3.700  -0.1438   0.02187   0.01516  -0.0660  0.9587  0.0334  -2.1707   0.0000   0.0000   0.0000  -0.2165
  -3.600  -0.1288   0.02064   0.01375  -0.0668  0.9573  0.0330  -2.1691   0.0000   0.0000   0.0000  -0.2764
  -3.500  -0.1131   0.01975   0.01273  -0.0676  0.9558  0.0328  -2.1515   0.0000   0.0000   0.0000  -0.3566
  -3.400  -0.0969   0.01900   0.01187  -0.0685  0.9545  0.0327  -2.1271   0.0000   0.0000   0.0000  -0.4670
  -3.300  -0.0803   0.01834   0.01113  -0.0694  0.9532  0.0327  -2.0981   0.0000   0.0000   0.0000  -0.6264
  -3.200  -0.0634   0.01778   0.01049  -0.0704  0.9521  0.0329  -2.0651   0.0000   0.0000   0.0000  -0.8749
  -3.100  -0.0461   0.01728   0.00995  -0.0715  0.9511  0.0332  -2.0281   0.0000   0.0000   0.0000  -1.3197
  -3.000  -0.0308   0.01690   0.00952  -0.0722  0.9494  0.0336  -1.9903   0.0000   0.0000   0.0000  -2.1211
  -2.900  -0.0248   0.01638   0.00899  -0.0711  0.9444  0.0342  -1.9833   0.0000   0.0000   0.0000  -2.6528
  -2.800  -0.0129   0.01568   0.00825  -0.0712  0.9414  0.0358  -1.9795   0.0000   0.0000   0.0000  -5.3272
  -2.700   0.0010   0.01520   0.00777  -0.0717  0.9388  0.0382  -1.9544   0.0000   0.0000   0.0000  73.0506
  -2.600   0.0163   0.01489   0.00745  -0.0725  0.9365  0.0416  -1.9138   0.0000   0.0000   0.0000   4.7472
  -2.500   0.0327   0.01461   0.00714  -0.0734  0.9346  0.0465  -1.8767   0.0000   0.0000   0.0000   2.5174
  -2.400   0.0494   0.01415   0.00674  -0.0745  0.9329  0.0632  -1.8542   0.0000   0.0000   0.0000   1.7695
  -2.300   0.0651   0.01319   0.00634  -0.0757  0.9315  0.1863  -1.8616   0.0000   0.0000   0.0000   1.4213
  -2.200   0.0822   0.01279   0.00622  -0.0770  0.9302  0.2612  -1.7789   0.0000   0.0000   0.0000   1.1944
  -2.100   0.0991   0.01238   0.00614  -0.0784  0.9290  0.3432  -1.6880   0.0000   0.0000   0.0000   1.0464
  -2.000   0.1154   0.01199   0.00607  -0.0795  0.9277  0.4323  -1.5962   0.0000   0.0000   0.0000   0.9434
  -1.900   0.1309   0.01161   0.00603  -0.0803  0.9265  0.5219  -1.5057   0.0000   0.0000   0.0000   0.8674
  -1.800   0.1317   0.01143   0.00606  -0.0782  0.9192  0.5766  -1.4655   0.0000   0.0000   0.0000   0.8469
  -1.700   0.1406   0.01112   0.00608  -0.0774  0.9154  0.6618  -1.3965   0.0000   0.0000   0.0000   0.8033
  -1.600   0.1505   0.01086   0.00607  -0.0766  0.9125  0.7381  -1.3239   0.0000   0.0000   0.0000   0.7614
  -1.500   0.1615   0.01065   0.00603  -0.0759  0.9100  0.7981  -1.2481   0.0000   0.0000   0.0000   0.7222
  -1.400   0.1741   0.01049   0.00596  -0.0756  0.9078  0.8452  -1.1676   0.0000   0.0000   0.0000   0.6857
  -1.300   0.1901   0.01035   0.00586  -0.0759  0.9063  0.8911  -1.0766   0.0000   0.0000   0.0000   0.6506
  -1.200   0.2156   0.01021   0.00571  -0.0783  0.9058  0.9397  -0.9505   0.0000   0.0000   0.0000   0.6141
  -1.100   0.2458   0.01008   0.00553  -0.0819  0.9055  0.9739  -0.8196   0.0000   0.0000   0.0000   0.5838
  -1.000   0.2748   0.00994   0.00533  -0.0854  0.9049  0.9946  -0.6963   0.0000   0.0000   0.0000   0.5611
  -0.900   0.2948   0.00983   0.00516  -0.0870  0.9032  1.0000  -0.6034   0.0000   0.0000   0.0000   0.5455
  -0.800   0.3000   0.00983   0.00512  -0.0859  0.8968  1.0000  -0.5565   0.0000   0.0000   0.0000   0.5363
  -0.700   0.3084   0.00979   0.00503  -0.0852  0.8911  1.0000  -0.5307   0.0000   0.0000   0.0000   0.5263
  -0.600   0.3198   0.00971   0.00490  -0.0851  0.8869  1.0000  -0.5411   0.0000   0.0000   0.0000   0.5159
  -0.500   0.3326   0.00962   0.00476  -0.0852  0.8834  1.0000  -0.5528   0.0000   0.0000   0.0000   0.5059
  -0.400   0.3456   0.00952   0.00461  -0.0854  0.8803  1.0000  -0.5651   0.0000   0.0000   0.0000   0.4966
  -0.300   0.3560   0.00948   0.00452  -0.0851  0.8761  1.0000  -0.5758   0.0000   0.0000   0.0000   0.4884
  -0.200   0.3631   0.00947   0.00449  -0.0842  0.8692  1.0000  -0.5844   0.0000   0.0000   0.0000   0.4812
  -0.100   0.3734   0.00942   0.00438  -0.0838  0.8640  1.0000  -0.5951   0.0000   0.0000   0.0000   0.4737
   0.000   0.3849   0.00934   0.00426  -0.0837  0.8597  1.0000  -0.6069   0.0000   0.0000   0.0000   0.4665
   0.100   0.3969   0.00926   0.00413  -0.0836  0.8560  1.0000  -0.6198   0.0000   0.0000   0.0000   0.4596
   0.200   0.4064   0.00924   0.00408  -0.0831  0.8504  1.0000  -0.6311   0.0000   0.0000   0.0000   0.4534
   0.300   0.4154   0.00923   0.00404  -0.0826  0.8436  1.0000  -0.6420   0.0000   0.0000   0.0000   0.4476
   0.400   0.4259   0.00918   0.00395  -0.0822  0.8381  1.0000  -0.6540   0.0000   0.0000   0.0000   0.4418
   0.500   0.4373   0.00912   0.00384  -0.0820  0.8334  1.0000  -0.6668   0.0000   0.0000   0.0000   0.4362
   0.600   0.4482   0.00908   0.00376  -0.0818  0.8282  1.0000  -0.6797   0.0000   0.0000   0.0000   0.4310
   0.700   0.4572   0.00909   0.00375  -0.0813  0.8207  1.0000  -0.6919   0.0000   0.0000   0.0000   0.4262
   0.800   0.4676   0.00906   0.00368  -0.0809  0.8144  1.0000  -0.7053   0.0000   0.0000   0.0000   0.4215
   0.900   0.4790   0.00902   0.00359  -0.0807  0.8091  1.0000  -0.7194   0.0000   0.0000   0.0000   0.4168
   1.000   0.4892   0.00901   0.00355  -0.0804  0.8023  1.0000  -0.7327   0.0000   0.0000   0.0000   0.4126
   1.100   0.4989   0.00902   0.00353  -0.0800  0.7945  1.0000  -0.7456   0.0000   0.0000   0.0000   0.4085
   1.200   0.5097   0.00900   0.00348  -0.0797  0.7880  1.0000  -0.7595   0.0000   0.0000   0.0000   0.4045
   1.300   0.5210   0.00899   0.00340  -0.0795  0.7821  1.0000  -0.7753   0.0000   0.0000   0.0000   0.4006
   1.400   0.5305   0.00902   0.00342  -0.0791  0.7734  1.0000  -0.7896   0.0000   0.0000   0.0000   0.3970
   1.500   0.5410   0.00903   0.00338  -0.0788  0.7657  1.0000  -0.8049   0.0000   0.0000   0.0000   0.3935
   1.600   0.5521   0.00904   0.00331  -0.0786  0.7593  1.0000  -0.8208   0.0000   0.0000   0.0000   0.3901
   1.700   0.5618   0.00907   0.00334  -0.0783  0.7505  1.0000  -0.8355   0.0000   0.0000   0.0000   0.3869
   1.800   0.5722   0.00910   0.00332  -0.0780  0.7424  1.0000  -0.8508   0.0000   0.0000   0.0000   0.3838
   1.900   0.5831   0.00913   0.00328  -0.0777  0.7354  1.0000  -0.8667   0.0000   0.0000   0.0000   0.3808
   2.000   0.5930   0.00918   0.00331  -0.0774  0.7263  1.0000  -0.8824   0.0000   0.0000   0.0000   0.3779
   2.100   0.6033   0.00922   0.00331  -0.0771  0.7178  1.0000  -0.8998   0.0000   0.0000   0.0000   0.3751
   2.200   0.6140   0.00928   0.00329  -0.0769  0.7105  1.0000  -0.9177   0.0000   0.0000   0.0000   0.3724
   2.300   0.6239   0.00933   0.00333  -0.0766  0.7011  1.0000  -0.9347   0.0000   0.0000   0.0000   0.3699
   2.400   0.6342   0.00939   0.00334  -0.0763  0.6926  1.0000  -0.9523   0.0000   0.0000   0.0000   0.3674
   2.500   0.6446   0.00946   0.00335  -0.0760  0.6846  1.0000  -0.9701   0.0000   0.0000   0.0000   0.3649
   2.600   0.6546   0.00952   0.00342  -0.0758  0.6751  1.0000  -0.9874   0.0000   0.0000   0.0000   0.3626
   2.700   0.6648   0.00959   0.00344  -0.0755  0.6666  1.0000  -1.0052   0.0000   0.0000   0.0000   0.3603
   2.800   0.6750   0.00967   0.00347  -0.0752  0.6582  1.0000  -1.0246   0.0000   0.0000   0.0000   0.3581
   2.900   0.6851   0.00974   0.00351  -0.0749  0.6488  1.0000  -1.0447   0.0000   0.0000   0.0000   0.3560
   3.000   0.6952   0.00983   0.00353  -0.0746  0.6404  1.0000  -1.0652   0.0000   0.0000   0.0000   0.3539
   3.100   0.7053   0.00990   0.00359  -0.0744  0.6313  1.0000  -1.0855   0.0000   0.0000   0.0000   0.3519
   3.200   0.7154   0.00998   0.00364  -0.0741  0.6220  1.0000  -1.1060   0.0000   0.0000   0.0000   0.3500
   3.300   0.7255   0.01010   0.00367  -0.0738  0.6139  1.0000  -1.1267   0.0000   0.0000   0.0000   0.3480
   3.400   0.7355   0.01016   0.00374  -0.0736  0.6042  1.0000  -1.1471   0.0000   0.0000   0.0000   0.3462
   3.500   0.7454   0.01026   0.00379  -0.0733  0.5950  1.0000  -1.1677   0.0000   0.0000   0.0000   0.3444
   3.600   0.7554   0.01036   0.00384  -0.0730  0.5862  1.0000  -1.1895   0.0000   0.0000   0.0000   0.3426
   3.700   0.7653   0.01045   0.00391  -0.0727  0.5764  1.0000  -1.2134   0.0000   0.0000   0.0000   0.3409
   3.800   0.7752   0.01057   0.00396  -0.0724  0.5677  1.0000  -1.2375   0.0000   0.0000   0.0000   0.3392
   3.900   0.7852   0.01065   0.00404  -0.0722  0.5585  1.0000  -1.2617   0.0000   0.0000   0.0000   0.3376
   4.000   0.7950   0.01076   0.00411  -0.0719  0.5491  1.0000  -1.2859   0.0000   0.0000   0.0000   0.3361
   4.100   0.8048   0.01089   0.00422  -0.0716  0.5404  1.0000  -1.3102   0.0000   0.0000   0.0000   0.3345
   4.200   0.8147   0.01097   0.00431  -0.0713  0.5304  1.0000  -1.3346   0.0000   0.0000   0.0000   0.3330
   4.300   0.8243   0.01110   0.00438  -0.0710  0.5209  1.0000  -1.3590   0.0000   0.0000   0.0000   0.3315
   4.400   0.8341   0.01121   0.00447  -0.0708  0.5114  1.0000  -1.3836   0.0000   0.0000   0.0000   0.3301
   4.500   0.8438   0.01132   0.00455  -0.0705  0.5016  1.0000  -1.4132   0.0000   0.0000   0.0000   0.3286
   4.600   0.8533   0.01148   0.00464  -0.0701  0.4929  1.0000  -1.4470   0.0000   0.0000   0.0000   0.3272
   4.700   0.8632   0.01157   0.00475  -0.0699  0.4832  1.0000  -1.4815   0.0000   0.0000   0.0000   0.3259
   4.800   0.8727   0.01171   0.00484  -0.0696  0.4737  1.0000  -1.5157   0.0000   0.0000   0.0000   0.3245
   4.900   0.8823   0.01184   0.00494  -0.0693  0.4644  1.0000  -1.5501   0.0000   0.0000   0.0000   0.3232
   5.000   0.8918   0.01196   0.00504  -0.0690  0.4542  1.0000  -1.5847   0.0000   0.0000   0.0000   0.3220
   5.100   0.9010   0.01214   0.00514  -0.0686  0.4449  1.0000  -1.6190   0.0000   0.0000   0.0000   0.3207
   5.200   0.9107   0.01224   0.00526  -0.0684  0.4347  1.0000  -1.6542   0.0000   0.0000   0.0000   0.3195
   5.300   0.9199   0.01240   0.00537  -0.0680  0.4250  1.0000  -1.6888   0.0000   0.0000   0.0000   0.3182
   5.400   0.9294   0.01254   0.00550  -0.0677  0.4158  1.0000  -1.7240   0.0000   0.0000   0.0000   0.3171
   5.500   0.9388   0.01268   0.00562  -0.0674  0.4061  1.0000  -1.7622   0.0000   0.0000   0.0000   0.3159
   5.600   0.9477   0.01288   0.00579  -0.0670  0.3971  1.0000  -1.8066   0.0000   0.0000   0.0000   0.3147
   5.700   0.9573   0.01299   0.00593  -0.0668  0.3870  1.0000  -1.8826   0.0000   0.0000   0.0000   0.3136
   5.800   0.9662   0.01317   0.00606  -0.0664  0.3771  1.0000  -1.9577   0.0000   0.0000   0.0000   0.3125
   5.900   0.9754   0.01333   0.00621  -0.0661  0.3676  1.0000  -2.0350   0.0000   0.0000   0.0000   0.3114
   6.000   0.9845   0.01349   0.00635  -0.0657  0.3576  1.0000  -2.1130   0.0000   0.0000   0.0000   0.3103
   6.100   0.9931   0.01372   0.00650  -0.0653  0.3486  1.0000  -2.1900   0.0000   0.0000   0.0000   0.3092
   6.200   1.0027   0.01384   0.00667  -0.0650  0.3392  1.0000  -2.2712   0.0000   0.0000   0.0000   0.3082
   6.300   1.0114   0.01405   0.00682  -0.0647  0.3302  1.0000  -2.3504   0.0000   0.0000   0.0000   0.3071
   6.400   1.0203   0.01424   0.00700  -0.0643  0.3216  1.0000  -2.4310   0.0000   0.0000   0.0000   0.3061
   6.500   1.0294   0.01441   0.00717  -0.0640  0.3120  1.0000  -2.5131   0.0000   0.0000   0.0000   0.3051
   6.600   1.0375   0.01466   0.00734  -0.0635  0.3030  1.0000  -2.5924   0.0000   0.0000   0.0000   0.3041
   6.700   1.0468   0.01481   0.00752  -0.0632  0.2936  1.0000  -2.6769   0.0000   0.0000   0.0000   0.3031
   6.800   1.0552   0.01502   0.00769  -0.0628  0.2841  1.0000  -2.7590   0.0000   0.0000   0.0000   0.3022
   6.900   1.0635   0.01525   0.00788  -0.0624  0.2753  1.0000  -2.8413   0.0000   0.0000   0.0000   0.3012
   7.000   1.0725   0.01542   0.00807  -0.0621  0.2661  1.0000  -2.9269   0.0000   0.0000   0.0000   0.3003
   7.100   1.0804   0.01568   0.00831  -0.0616  0.2576  1.0000  -3.0121   0.0000   0.0000   0.0000   0.2993
   7.200   1.0892   0.01587   0.00852  -0.0613  0.2494  1.0000  -3.0987   0.0000   0.0000   0.0000   0.2984
   7.300   1.0978   0.01607   0.00872  -0.0609  0.2408  1.0000  -3.1849   0.0000   0.0000   0.0000   0.2975
   7.400   1.1052   0.01638   0.00894  -0.0603  0.2327  1.0000  -3.2666   0.0000   0.0000   0.0000   0.2965
   7.500   1.1143   0.01654   0.00915  -0.0600  0.2247  1.0000  -3.3560   0.0000   0.0000   0.0000   0.2956
   7.600   1.1224   0.01676   0.00936  -0.0596  0.2162  1.0000  -3.4424   0.0000   0.0000   0.0000   0.2947
   7.700   1.1294   0.01709   0.00960  -0.0591  0.2080  1.0000  -3.5240   0.0000   0.0000   0.0000   0.2938
   7.800   1.1386   0.01723   0.00980  -0.0588  0.1997  1.0000  -3.6161   0.0000   0.0000   0.0000   0.2930
   7.900   1.1462   0.01748   0.01001  -0.0583  0.1913  1.0000  -3.7019   0.0000   0.0000   0.0000   0.2921
   8.000   1.1535   0.01778   0.01027  -0.0578  0.1836  1.0000  -3.7864   0.0000   0.0000   0.0000   0.2912
   8.100   1.1623   0.01795   0.01048  -0.0574  0.1757  1.0000  -3.8783   0.0000   0.0000   0.0000   0.2904
   8.200   1.1696   0.01823   0.01072  -0.0569  0.1685  1.0000  -3.9638   0.0000   0.0000   0.0000   0.2895
   8.300   1.1765   0.01856   0.01102  -0.0563  0.1618  1.0000  -4.0466   0.0000   0.0000   0.0000   0.2886
   8.400   1.1853   0.01873   0.01125  -0.0560  0.1552  1.0000  -4.1396   0.0000   0.0000   0.0000   0.2879
   8.500   1.1927   0.01899   0.01150  -0.0555  0.1481  1.0000  -4.2266   0.0000   0.0000   0.0000   0.2870
   8.600   1.1984   0.01940   0.01183  -0.0548  0.1412  1.0000  -4.3045   0.0000   0.0000   0.0000   0.2861
   8.700   1.2073   0.01955   0.01206  -0.0545  0.1351  1.0000  -4.3989   0.0000   0.0000   0.0000   0.2853
   8.800   1.2149   0.01980   0.01235  -0.0540  0.1283  1.0000  -4.4861   0.0000   0.0000   0.0000   0.2845
   8.900   1.2208   0.02018   0.01267  -0.0533  0.1219  1.0000  -4.5655   0.0000   0.0000   0.0000   0.2836
   9.000   1.2281   0.02045   0.01296  -0.0528  0.1161  1.0000  -4.6513   0.0000   0.0000   0.0000   0.2828
   9.100   1.2359   0.02067   0.01322  -0.0524  0.1093  1.0000  -4.7405   0.0000   0.0000   0.0000   0.2820
   9.200   1.2418   0.02103   0.01352  -0.0517  0.1024  1.0000  -4.8200   0.0000   0.0000   0.0000   0.2812
   9.300   1.2480   0.02137   0.01386  -0.0511  0.0962  1.0000  -4.8992   0.0000   0.0000   0.0000   0.2803
   9.400   1.2556   0.02161   0.01413  -0.0506  0.0892  1.0000  -4.9847   0.0000   0.0000   0.0000   0.2796
   9.500   1.2604   0.02203   0.01449  -0.0499  0.0817  1.0000  -5.0558   0.0000   0.0000   0.0000   0.2787
   9.600   1.2666   0.02237   0.01485  -0.0492  0.0743  1.0000  -5.1286   0.0000   0.0000   0.0000   0.2778
   9.700   1.2713   0.02282   0.01523  -0.0484  0.0653  1.0000  -5.1913   0.0000   0.0000   0.0000   0.2769
   9.800   1.2745   0.02339   0.01577  -0.0474  0.0561  1.0000  -5.2323   0.0000   0.0000   0.0000   0.2758
   9.900   1.2746   0.02411   0.01639  -0.0459  0.0470  1.0000  -5.2527   0.0000   0.0000   0.0000   0.2746
  10.000   1.2743   0.02484   0.01713  -0.0443  0.0408  1.0000  -5.2542   0.0000   0.0000   0.0000   0.2731
  10.100   1.2756   0.02544   0.01774  -0.0429  0.0368  1.0000  -5.2766   0.0000   0.0000   0.0000   0.2719
  10.200   1.2753   0.02614   0.01842  -0.0414  0.0341  1.0000  -5.2953   0.0000   0.0000   0.0000   0.2706
  10.300   1.2722   0.02703   0.01933  -0.0396  0.0319  1.0000  -5.2912   0.0000   0.0000   0.0000   0.2691
  10.400   1.2691   0.02795   0.02028  -0.0378  0.0305  1.0000  -5.2915   0.0000   0.0000   0.0000   0.2677
  10.500   1.2725   0.02844   0.02084  -0.0368  0.0297  1.0000  -5.3528   0.0000   0.0000   0.0000   0.2667
  10.600   1.2749   0.02901   0.02147  -0.0358  0.0289  1.0000  -5.4082   0.0000   0.0000   0.0000   0.2657
  10.700   1.2768   0.02961   0.02214  -0.0348  0.0281  1.0000  -5.4609   0.0000   0.0000   0.0000   0.2647
  10.800   1.2786   0.03024   0.02282  -0.0338  0.0274  1.0000  -5.5130   0.0000   0.0000   0.0000   0.2637
  10.900   1.2802   0.03090   0.02353  -0.0328  0.0267  1.0000  -5.5647   0.0000   0.0000   0.0000   0.2627
  11.000   1.2818   0.03157   0.02425  -0.0318  0.0261  1.0000  -5.6164   0.0000   0.0000   0.0000   0.2618
  11.100   1.2833   0.03226   0.02499  -0.0309  0.0256  1.0000  -5.6685   0.0000   0.0000   0.0000   0.2609
  11.200   1.2847   0.03297   0.02575  -0.0300  0.0251  1.0000  -5.7202   0.0000   0.0000   0.0000   0.2600
  11.300   1.2859   0.03371   0.02653  -0.0291  0.0246  1.0000  -5.7714   0.0000   0.0000   0.0000   0.2592
  11.400   1.2871   0.03447   0.02734  -0.0283  0.0242  1.0000  -5.8223   0.0000   0.0000   0.0000   0.2583
  11.500   1.2880   0.03526   0.02818  -0.0275  0.0239  1.0000  -5.8720   0.0000   0.0000   0.0000   0.2575
  11.600   1.2889   0.03609   0.02909  -0.0267  0.0235  1.0000  -5.9185   0.0000   0.0000   0.0000   0.2568
  11.700   1.2897   0.03695   0.03000  -0.0260  0.0232  1.0000  -5.9656   0.0000   0.0000   0.0000   0.2560
  11.800   1.2904   0.03785   0.03095  -0.0253  0.0229  1.0000  -6.0110   0.0000   0.0000   0.0000   0.2553
  11.900   1.2910   0.03880   0.03194  -0.0246  0.0227  1.0000  -6.0550   0.0000   0.0000   0.0000   0.2546
  12.000   1.2916   0.03978   0.03298  -0.0240  0.0224  1.0000  -6.0967   0.0000   0.0000   0.0000   0.2540
  12.100   1.2920   0.04082   0.03408  -0.0234  0.0222  1.0000  -6.1362   0.0000   0.0000   0.0000   0.2533
  12.200   1.2926   0.04191   0.03522  -0.0228  0.0220  1.0000  -6.1743   0.0000   0.0000   0.0000   0.2527
  12.300   1.2933   0.04304   0.03641  -0.0222  0.0218  1.0000  -6.2112   0.0000   0.0000   0.0000   0.2521
  12.400   1.2940   0.04422   0.03765  -0.0217  0.0216  1.0000  -6.2461   0.0000   0.0000   0.0000   0.2515
  12.500   1.2944   0.04545   0.03897  -0.0212  0.0215  1.0000  -6.2778   0.0000   0.0000   0.0000   0.2510
  12.600   1.2947   0.04673   0.04033  -0.0207  0.0214  1.0000  -6.3076   0.0000   0.0000   0.0000   0.2504
  12.700   1.2948   0.04806   0.04174  -0.0203  0.0213  1.0000  -6.3349   0.0000   0.0000   0.0000   0.2500
  12.800   1.2946   0.04943   0.04319  -0.0199  0.0212  1.0000  -6.3598   0.0000   0.0000   0.0000   0.2495
  12.900   1.2940   0.05084   0.04470  -0.0196  0.0211  1.0000  -6.3817   0.0000   0.0000   0.0000   0.2491
  13.000   1.2929   0.05230   0.04625  -0.0193  0.0210  1.0000  -6.4006   0.0000   0.0000   0.0000   0.2487
  13.100   1.2913   0.05380   0.04785  -0.0190  0.0210  1.0000  -6.4169   0.0000   0.0000   0.0000   0.2483
  13.200   1.2894   0.05533   0.04948  -0.0188  0.0210  1.0000  -6.4312   0.0000   0.0000   0.0000   0.2481
  13.300   1.2872   0.05691   0.05115  -0.0187  0.0210  1.0000  -6.4432   0.0000   0.0000   0.0000   0.2478
  13.400   1.2846   0.05852   0.05285  -0.0187  0.0209  1.0000  -6.4532   0.0000   0.0000   0.0000   0.2476
  13.500   1.2816   0.06017   0.05459  -0.0187  0.0209  1.0000  -6.4609   0.0000   0.0000   0.0000   0.2475
  13.600   1.2784   0.06186   0.05638  -0.0188  0.0209  1.0000  -6.4668   0.0000   0.0000   0.0000   0.2475
  13.700   1.2748   0.06359   0.05820  -0.0189  0.0209  1.0000  -6.4708   0.0000   0.0000   0.0000   0.2475
  13.800   1.2711   0.06537   0.06008  -0.0192  0.0209  1.0000  -6.4731   0.0000   0.0000   0.0000   0.2475
  13.900   1.2671   0.06721   0.06201  -0.0196  0.0210  1.0000  -6.4731   0.0000   0.0000   0.0000   0.2477
  14.000   1.2628   0.06912   0.06400  -0.0200  0.0210  1.0000  -6.4706   0.0000   0.0000   0.0000   0.2479
  14.100   1.2581   0.07110   0.06606  -0.0205  0.0210  1.0000  -6.4652   0.0000   0.0000   0.0000   0.2482
  14.200   1.2532   0.07314   0.06820  -0.0212  0.0210  1.0000  -6.4573   0.0000   0.0000   0.0000   0.2486
  14.300   1.2481   0.07525   0.07039  -0.0219  0.0210  1.0000  -6.4469   0.0000   0.0000   0.0000   0.2491
  14.400   1.2426   0.07743   0.07265  -0.0228  0.0210  1.0000  -6.4338   0.0000   0.0000   0.0000   0.2497
  14.500   1.2371   0.07967   0.07498  -0.0237  0.0210  1.0000  -6.4187   0.0000   0.0000   0.0000   0.2503
  14.600   1.2313   0.08199   0.07738  -0.0247  0.0210  1.0000  -6.4012   0.0000   0.0000   0.0000   0.2511
  14.700   1.2255   0.08439   0.07986  -0.0259  0.0211  1.0000  -6.3816   0.0000   0.0000   0.0000   0.2519
  14.800   1.2195   0.08686   0.08241  -0.0271  0.0211  1.0000  -6.3600   0.0000   0.0000   0.0000   0.2528
  14.900   1.2135   0.08942   0.08505  -0.0285  0.0211  1.0000  -6.3359   0.0000   0.0000   0.0000   0.2539
  15.000   1.2073   0.09205   0.08776  -0.0299  0.0211  1.0000  -6.3095   0.0000   0.0000   0.0000   0.2550


